# generated using pymatgen
data_Mg
_symmetry_space_group_name_H-M   'P 1'
_cell_length_a   12.82675674
_cell_length_b   12.82675674
_cell_length_c   10.30028831
_cell_angle_alpha   90.00000000
_cell_angle_beta   90.00000000
_cell_angle_gamma   120.00000000
_symmetry_Int_Tables_number   1
_chemical_formula_structural   Mg
_chemical_formula_sum   Mg64
_cell_volume   1467.62036464
_cell_formula_units_Z   64
loop_
 _symmetry_equiv_pos_site_id
 _symmetry_equiv_pos_as_xyz
  1  'x, y, z'
loop_
 _atom_site_type_symbol
 _atom_site_label
 _atom_site_symmetry_multiplicity
 _atom_site_fract_x
 _atom_site_fract_y
 _atom_site_fract_z
 _atom_site_occupancy
  H   H0  1  0.08076965  0.16577339  0.12664681  1
  Mg  Mg1  1  0.16507029  0.08188835  0.37393162  1
  Mg  Mg2  1  0.33045377  0.16386173  0.13083065  1
  Mg  Mg3  1  0.41427043  0.08510613  0.38044130  1
  Mg  Mg4  1  0.58197348  0.16725196  0.12688709  1
  Mg  Mg5  1  0.66686542  0.08684922  0.37507541  1
  Mg  Mg6  1  0.83288134  0.16881358  0.12072191  1
  Mg  Mg7  1  0.91296824  0.08115234  0.37175465  1
  Mg  Mg8  1  0.08432012  0.41402738  0.12448769  1
  Mg  Mg9  1  0.17049994  0.33143862  0.37384207  1
  Mg  Mg10  1  0.33627951  0.41471546  0.12717151  1
  Mg  Mg11  1  0.41759016  0.33652374  0.37510240  1
  Mg  Mg12  1  0.58260030  0.41330623  0.12301068  1
  Mg  Mg13  1  0.66735516  0.33563088  0.37468820  1
  Mg  Mg14  1  0.83756063  0.41662676  0.13070609  1
  Mg  Mg15  1  0.91848102  0.33398731  0.37481502  1
  Mg  Mg16  1  0.08145394  0.66950876  0.12412856  1
  Mg  Mg17  1  0.16814211  0.58418708  0.37672150  1
  Mg  Mg18  1  0.33310912  0.66595516  0.12314834  1
  Mg  Mg19  1  0.41941580  0.58449045  0.37676668  1
  Mg  Mg20  1  0.58584846  0.67206712  0.12179262  1
  Mg  Mg21  1  0.66614749  0.58203386  0.37927883  1
  Mg  Mg22  1  0.83262645  0.66498788  0.11702272  1
  Mg  Mg23  1  0.91629133  0.58360415  0.37197807  1
  Mg  Mg24  1  0.08433179  0.91479674  0.12935360  1
  Mg  Mg25  1  0.17074553  0.83666308  0.37659266  1
  Mg  Mg26  1  0.33044778  0.91779607  0.12605405  1
  Mg  Mg27  1  0.41685108  0.83324859  0.37021255  1
  Mg  Mg28  1  0.58361227  0.91813995  0.12136013  1
  Mg  Mg29  1  0.66623693  0.83213410  0.37477918  1
  Mg  Mg30  1  0.83754065  0.91897505  0.12307316  1
  Mg  Mg31  1  0.91939968  0.83586772  0.38097577  1
  Mg  Mg32  1  0.08756308  0.16971489  0.62603883  1
  Mg  Mg33  1  0.16349077  0.08120158  0.88053595  1
  Mg  Mg34  1  0.33406226  0.16469434  0.62144493  1
  Mg  Mg35  1  0.41432718  0.08359091  0.87007357  1
  Mg  Mg36  1  0.58462204  0.16525544  0.62369404  1
  Mg  Mg37  1  0.67149851  0.08457192  0.87510987  1
  Mg  Mg38  1  0.83255579  0.16635281  0.62073445  1
  Mg  Mg39  1  0.91669835  0.08351190  0.87556986  1
  Mg  Mg40  1  0.08146009  0.41218338  0.62354909  1
  Mg  Mg41  1  0.16340345  0.33164886  0.87345403  1
  Mg  Mg42  1  0.33166388  0.41539043  0.62582306  1
  Mg  Mg43  1  0.41502776  0.33287936  0.87026171  1
  Mg  Mg44  1  0.57933737  0.41625003  0.62426769  1
  Mg  Mg45  1  0.66410983  0.33050153  0.87681416  1
  Mg  Mg46  1  0.83112800  0.41095905  0.62642873  1
  Mg  Mg47  1  0.92002924  0.33311953  0.87058576  1
  Mg  Mg48  1  0.08217611  0.66543766  0.62690257  1
  Mg  Mg49  1  0.16588846  0.58399118  0.87670592  1
  Mg  Mg50  1  0.33308708  0.66633081  0.62833128  1
  Mg  Mg51  1  0.41578325  0.58619522  0.87658370  1
  Mg  Mg52  1  0.58950674  0.66916733  0.62524455  1
  Mg  Mg53  1  0.66716826  0.58371681  0.87053267  1
  Mg  Mg54  1  0.83033903  0.66187716  0.62263344  1
  Mg  Mg55  1  0.91412650  0.58254224  0.87861848  1
  Mg  Mg56  1  0.08205761  0.91499114  0.63024992  1
  Mg  Mg57  1  0.16731999  0.83671549  0.87568833  1
  Mg  Mg58  1  0.33484844  0.92016166  0.62594918  1
  Mg  Mg59  1  0.41504308  0.83212827  0.87361116  1
  Mg  Mg60  1  0.58633446  0.91935620  0.62644397  1
  Mg  Mg61  1  0.66424839  0.83347866  0.87449713  1
  Mg  Mg62  1  0.83318017  0.91544368  0.62795445  1
  Mg  Mg63  1  0.91577497  0.83523171  0.87231601  1
