# generated using pymatgen
data_Mg
_symmetry_space_group_name_H-M   'P 1'
_cell_length_a   12.86604611
_cell_length_b   12.86604611
_cell_length_c   10.33183890
_cell_angle_alpha   90.00000000
_cell_angle_beta   90.00000000
_cell_angle_gamma   120.00000000
_symmetry_Int_Tables_number   1
_chemical_formula_structural   Mg
_chemical_formula_sum   Mg64
_cell_volume   1481.14802667
_cell_formula_units_Z   64
loop_
 _symmetry_equiv_pos_site_id
 _symmetry_equiv_pos_as_xyz
  1  'x, y, z'
loop_
 _atom_site_type_symbol
 _atom_site_label
 _atom_site_symmetry_multiplicity
 _atom_site_fract_x
 _atom_site_fract_y
 _atom_site_fract_z
 _atom_site_occupancy
  H  H0  1  0.07819697  0.16485637  0.12829303  1
  Mg  Mg1  1  0.16341781  0.08042561  0.37295353  1
  Mg  Mg2  1  0.32754341  0.16105921  0.13663826  1
  Mg  Mg3  1  0.41192345  0.08692998  0.38589001  1
  Mg  Mg4  1  0.58056313  0.16780712  0.12878777  1
  Mg  Mg5  1  0.66701472  0.09035984  0.37505726  1
  Mg  Mg6  1  0.83241548  0.17098962  0.11642436  1
  Mg  Mg7  1  0.90920667  0.07895196  0.36849567  1
  Mg  Mg8  1  0.08538627  0.41142581  0.12398487  1
  Mg  Mg9  1  0.17437030  0.32955316  0.37269403  1
  Mg  Mg10  1  0.33928563  0.41277122  0.12927023  1
  Mg  Mg11  1  0.41854958  0.33973723  0.37520260  1
  Mg  Mg12  1  0.58188421  0.40994626  0.12098438  1
  Mg  Mg13  1  0.66804320  0.33797908  0.37440789  1
  Mg  Mg14  1  0.84182486  0.41657155  0.13639713  1
  Mg  Mg15  1  0.92037172  0.33466384  0.37461388  1
  Mg  Mg16  1  0.07960825  0.67235696  0.12329313  1
  Mg  Mg17  1  0.16963727  0.58503627  0.37844515  1
  Mg  Mg18  1  0.33284631  0.66522988  0.12132376  1
  Mg  Mg19  1  0.42220148  0.58568488  0.37855419  1
  Mg  Mg20  1  0.58841742  0.67748769  0.11862590  1
  Mg  Mg21  1  0.66564820  0.58074983  0.38339599  1
  Mg  Mg22  1  0.83185605  0.66331324  0.10907807  1
  Mg  Mg23  1  0.91595748  0.58394443  0.36894108  1
  Mg  Mg24  1  0.08525671  0.91288239  0.13377548  1
  Mg  Mg25  1  0.17482345  0.83996704  0.37830349  1
  Mg  Mg26  1  0.32758782  0.91892920  0.12705775  1
  Mg  Mg27  1  0.41708886  0.83320880  0.36540082  1
  Mg  Mg28  1  0.58388312  0.91966888  0.11771888  1
  Mg  Mg29  1  0.66582000  0.83097121  0.37451242  1
  Mg  Mg30  1  0.84178123  0.92126396  0.12116951  1
  Mg  Mg31  1  0.92213495  0.83836186  0.38696059  1
  Mg  Mg32  1  0.09179059  0.17270630  0.62705032  1
  Mg  Mg33  1  0.16029079  0.07908920  0.88619964  1
  Mg  Mg34  1  0.33475992  0.16274303  0.61786566  1
  Mg  Mg35  1  0.41200266  0.08387166  0.86518943  1
  Mg  Mg36  1  0.58591894  0.16385272  0.62242061  1
  Mg  Mg37  1  0.67632561  0.08583057  0.87519238  1
  Mg  Mg38  1  0.83182285  0.16598402  0.61639489  1
  Mg  Mg39  1  0.91673789  0.08369092  0.87609118  1
  Mg  Mg40  1  0.07961234  0.40770116  0.62201583  1
  Mg  Mg41  1  0.16017819  0.32999035  0.87197181  1
  Mg  Mg42  1  0.33000713  0.41417711  0.62665252  1
  Mg  Mg43  1  0.41330958  0.33239087  0.86555125  1
  Mg  Mg44  1  0.57529877  0.41576058  0.62354591  1
  Mg  Mg45  1  0.66155388  0.32763744  0.87867463  1
  Mg  Mg46  1  0.82887896  0.40521459  0.62788024  1
  Mg  Mg47  1  0.92341292  0.33294674  0.86615871  1
  Mg  Mg48  1  0.08098269  0.66416105  0.62883252  1
  Mg  Mg49  1  0.16504150  0.58463695  0.87844176  1
  Mg  Mg50  1  0.33286046  0.66601046  0.63162957  1
  Mg  Mg51  1  0.41486041  0.58900550  0.87818326  1
  Mg  Mg52  1  0.59566759  0.67168879  0.62552099  1
  Mg  Mg53  1  0.66761653  0.58407261  0.86601223  1
  Mg  Mg54  1  0.82738408  0.65700366  0.62027178  1
  Mg  Mg55  1  0.91155995  0.58168299  0.88218358  1
  Mg  Mg56  1  0.08076462  0.91329206  0.63553531  1
  Mg  Mg57  1  0.16795914  0.84009613  0.87642467  1
  Mg  Mg58  1  0.33639352  0.92360018  0.62686358  1
  Mg  Mg59  1  0.41340015  0.83100361  0.87223915  1
  Mg  Mg60  1  0.58933211  0.92203471  0.62783272  1
  Mg  Mg61  1  0.66183788  0.83366298  0.87398428  1
  Mg  Mg62  1  0.83305960  0.91426983  0.63091436  1
  Mg  Mg63  1  0.91483273  0.83710689  0.86962411  1
