# generated using pymatgen
data_Mg
_symmetry_space_group_name_H-M   'P 1'
_cell_length_a   12.85339141
_cell_length_b   12.85339141
_cell_length_c   10.32167678
_cell_angle_alpha   90.00000000
_cell_angle_beta   90.00000000
_cell_angle_gamma   120.00000000
_symmetry_Int_Tables_number   1
_chemical_formula_structural   Mg
_chemical_formula_sum   Mg64
_cell_volume   1476.78187220
_cell_formula_units_Z   64
loop_
 _symmetry_equiv_pos_site_id
 _symmetry_equiv_pos_as_xyz
  1  'x, y, z'
loop_
 _atom_site_type_symbol
 _atom_site_label
 _atom_site_symmetry_multiplicity
 _atom_site_fract_x
 _atom_site_fract_y
 _atom_site_fract_z
 _atom_site_occupancy
  H  H0  1  0.07567505  0.16392150  0.12990052  1
  Mg  Mg1  1  0.16169391  0.07895628  0.37217957  1
  Mg  Mg2  1  0.32463431  0.15832919  0.14227750  1
  Mg  Mg3  1  0.40974392  0.08880738  0.39118295  1
  Mg  Mg4  1  0.57909862  0.16829406  0.13068196  1
  Mg  Mg5  1  0.66707157  0.09377874  0.37485131  1
  Mg  Mg6  1  0.83194109  0.17318118  0.11219924  1
  Mg  Mg7  1  0.90539349  0.07675864  0.36526980  1
  Mg  Mg8  1  0.08658093  0.40895477  0.12351300  1
  Mg  Mg9  1  0.17821880  0.32773210  0.37159266  1
  Mg  Mg10  1  0.34233219  0.41089149  0.13116972  1
  Mg  Mg11  1  0.41957245  0.34291183  0.37530005  1
  Mg  Mg12  1  0.58120993  0.40665390  0.11893914  1
  Mg  Mg13  1  0.66871455  0.34036645  0.37419408  1
  Mg  Mg14  1  0.84605813  0.41650280  0.14191742  1
  Mg  Mg15  1  0.92237073  0.33536441  0.37439699  1
  Mg  Mg16  1  0.07786616  0.67515071  0.12254014  1
  Mg  Mg17  1  0.17113222  0.58585415  0.38014126  1
  Mg  Mg18  1  0.33251320  0.66449891  0.11960063  1
  Mg  Mg19  1  0.42499158  0.58692118  0.38034336  1
  Mg  Mg20  1  0.59102867  0.68283294  0.11561323  1
  Mg  Mg21  1  0.66518687  0.57951768  0.38711929  1
  Mg  Mg22  1  0.83097649  0.66169028  0.10138086  1
  Mg  Mg23  1  0.91571788  0.58442075  0.36594167  1
  Mg  Mg24  1  0.08601186  0.91093678  0.13823556  1
  Mg  Mg25  1  0.17880099  0.84313886  0.38020473  1
  Mg  Mg26  1  0.32484258  0.92003778  0.12793574  1
  Mg  Mg27  1  0.41742685  0.83326004  0.36063441  1
  Mg  Mg28  1  0.58412513  0.92127295  0.11416165  1
  Mg  Mg29  1  0.66544012  0.82990324  0.37416478  1
  Mg  Mg30  1  0.84597662  0.92345116  0.11934675  1
  Mg  Mg31  1  0.92482436  0.84072970  0.39285515  1
  Mg  Mg32  1  0.09592075  0.17551249  0.62799437  1
  Mg  Mg33  1  0.15711909  0.07706058  0.89199890  1
  Mg  Mg34  1  0.33537324  0.16090251  0.61434352  1
  Mg  Mg35  1  0.40975079  0.08419258  0.86049302  1
  Mg  Mg36  1  0.58718862  0.16249733  0.62124826  1
  Mg  Mg37  1  0.68103614  0.08710124  0.87519914  1
  Mg  Mg38  1  0.83119467  0.16551519  0.61201482  1
  Mg  Mg39  1  0.91680220  0.08386754  0.87651048  1
  Mg  Mg40  1  0.07785669  0.40333097  0.62034795  1
  Mg  Mg41  1  0.15711042  0.32841873  0.87064385  1
  Mg  Mg42  1  0.32840853  0.41312061  0.62746378  1
  Mg  Mg43  1  0.41147983  0.33184498  0.86100781  1
  Mg  Mg44  1  0.57127029  0.41514809  0.62286060  1
  Mg  Mg45  1  0.65905817  0.32477222  0.88056970  1
  Mg  Mg46  1  0.82659829  0.39953348  0.62934325  1
  Mg  Mg47  1  0.92675008  0.33284495  0.86181418  1
  Mg  Mg48  1  0.07975544  0.66282881  0.63077336  1
  Mg  Mg49  1  0.16408542  0.58524250  0.88020243  1
  Mg  Mg50  1  0.33266499  0.66571919  0.63478490  1
  Mg  Mg51  1  0.41388107  0.59164165  0.87977752  1
  Mg  Mg52  1  0.60165801  0.67420134  0.62583800  1
  Mg  Mg53  1  0.66795270  0.58436016  0.86150018  1
  Mg  Mg54  1  0.82458506  0.65208405  0.61797754  1
  Mg  Mg55  1  0.90901387  0.58069195  0.88553288  1
  Mg  Mg56  1  0.07947660  0.91159424  0.64075641  1
  Mg  Mg57  1  0.16856354  0.84339484  0.87724831  1
  Mg  Mg58  1  0.33795090  0.92683722  0.62768880  1
  Mg  Mg59  1  0.41175833  0.83006231  0.87093537  1
  Mg  Mg60  1  0.59225797  0.92462838  0.62908974  1
  Mg  Mg61  1  0.65950067  0.83392051  0.87345441  1
  Mg  Mg62  1  0.83300036  0.91322841  0.63380480  1
  Mg  Mg63  1  0.91380605  0.83887911  0.86699664  1
