# generated using pymatgen
data_Mg
_symmetry_space_group_name_H-M   'P 1'
_cell_length_a   12.85098414
_cell_length_b   12.85098414
_cell_length_c   10.31974367
_cell_angle_alpha   90.00000000
_cell_angle_beta   90.00000000
_cell_angle_gamma   120.00000000
_symmetry_Int_Tables_number   1
_chemical_formula_structural   Mg
_chemical_formula_sum   Mg64
_cell_volume   1475.95228341
_cell_formula_units_Z   64
loop_
 _symmetry_equiv_pos_site_id
 _symmetry_equiv_pos_as_xyz
  1  'x, y, z'
loop_
 _atom_site_type_symbol
 _atom_site_label
 _atom_site_symmetry_multiplicity
 _atom_site_fract_x
 _atom_site_fract_y
 _atom_site_fract_z
 _atom_site_occupancy
  H  H0  1  0.07319945  0.16295812  0.13148397  1
  Mg  Mg1  1  0.15982734  0.07744019  0.37170937  1
  Mg  Mg2  1  0.32167452  0.15566339  0.14777754  1
  Mg  Mg3  1  0.40780576  0.09078996  0.39624879  1
  Mg  Mg4  1  0.57753967  0.16868567  0.13261499  1
  Mg  Mg5  1  0.66700477  0.09712630  0.37435069  1
  Mg  Mg6  1  0.83146066  0.17544735  0.10802895  1
  Mg  Mg7  1  0.90140985  0.07453306  0.36201560  1
  Mg  Mg8  1  0.08798927  0.40662963  0.12308255  1
  Mg  Mg9  1  0.18208794  0.32597731  0.37053805  1
  Mg  Mg10  1  0.34548590  0.40908288  0.13278553  1
  Mg  Mg11  1  0.42073204  0.34606995  0.37540344  1
  Mg  Mg12  1  0.58057616  0.40339340  0.11683707  1
  Mg  Mg13  1  0.66937256  0.34284438  0.37407374  1
  Mg  Mg14  1  0.85031767  0.41643241  0.14725413  1
  Mg  Mg15  1  0.92457161  0.33610340  0.37417256  1
  Mg  Mg16  1  0.07624184  0.67790229  0.12188550  1
  Mg  Mg17  1  0.17264712  0.58663869  0.38183671  1
  Mg  Mg18  1  0.33206799  0.66375012  0.11801488  1
  Mg  Mg19  1  0.42783193  0.58824176  0.38217159  1
  Mg  Mg20  1  0.59374886  0.68817001  0.11277881  1
  Mg  Mg21  1  0.66475712  0.57833954  0.39033579  1
  Mg  Mg22  1  0.82990632  0.66012963  0.09394284  1
  Mg  Mg23  1  0.91562420  0.58512731  0.36294438  1
  Mg  Mg24  1  0.08651864  0.90892524  0.14284568  1
  Mg  Mg25  1  0.18269315  0.84616473  0.38242410  1
  Mg  Mg26  1  0.32222273  0.92112500  0.12863562  1
  Mg  Mg27  1  0.41792083  0.83345382  0.35582689  1
  Mg  Mg28  1  0.58432416  0.92302354  0.11066860  1
  Mg  Mg29  1  0.66511424  0.82895829  0.37369337  1
  Mg  Mg30  1  0.85015979  0.92550530  0.11759686  1
  Mg  Mg31  1  0.92750307  0.84296015  0.39876116  1
  Mg  Mg32  1  0.09998233  0.17807241  0.62886628  1
  Mg  Mg33  1  0.15394271  0.07512267  0.89812462  1
  Mg  Mg34  1  0.33584626  0.15922844  0.61090418  1
  Mg  Mg35  1  0.40754852  0.08458744  0.85598791  1
  Mg  Mg36  1  0.58842245  0.16118370  0.62021938  1
  Mg  Mg37  1  0.68565909  0.08842294  0.87505568  1
  Mg  Mg38  1  0.83071741  0.16488185  0.60750409  1
  Mg  Mg39  1  0.91691791  0.08404962  0.87679033  1
  Mg  Mg40  1  0.07620792  0.39905889  0.61843363  1
  Mg  Mg41  1  0.15424237  0.32694893  0.86951762  1
  Mg  Mg42  1  0.32686753  0.41229652  0.62824450  1
  Mg  Mg43  1  0.40944802  0.33119588  0.85664722  1
  Mg  Mg44  1  0.56718790  0.41434943  0.62221603  1
  Mg  Mg45  1  0.65660948  0.32184803  0.88252508  1
  Mg  Mg46  1  0.82423473  0.39384928  0.63084884  1
  Mg  Mg47  1  0.93005409  0.33282908  0.85752361  1
  Mg  Mg48  1  0.07847066  0.66139908  0.63276783  1
  Mg  Mg49  1  0.16295196  0.58579857  0.88204046  1
  Mg  Mg50  1  0.33249811  0.66545079  0.63777589  1
  Mg  Mg51  1  0.41280014  0.59405154  0.88139130  1
  Mg  Mg52  1  0.60749213  0.67675700  0.62619525  1
  Mg  Mg53  1  0.66812379  0.58453955  0.85693912  1
  Mg  Mg54  1  0.82199000  0.64700941  0.61575067  1
  Mg  Mg55  1  0.90647398  0.57945186  0.88856651  1
  Mg  Mg56  1  0.07819732  0.90988357  0.64595321  1
  Mg  Mg57  1  0.16913642  0.84662858  0.87823168  1
  Mg  Mg58  1  0.33953686  0.92980684  0.62839559  1
  Mg  Mg59  1  0.41008684  0.82938510  0.86971841  1
  Mg  Mg60  1  0.59513606  0.92713581  0.63017997  1
  Mg  Mg61  1  0.65723076  0.83429291  0.87287266  1
  Mg  Mg62  1  0.83302881  0.91238760  0.63661839  1
  Mg  Mg63  1  0.91262030  0.84050389  0.86445432  1
