# generated using pymatgen
data_Mg
_symmetry_space_group_name_H-M   'P 1'
_cell_length_a   12.86299988
_cell_length_b   12.86299988
_cell_length_c   10.32939269
_cell_angle_alpha   90.00000000
_cell_angle_beta   90.00000000
_cell_angle_gamma   120.00000000
_symmetry_Int_Tables_number   1
_chemical_formula_structural   Mg
_chemical_formula_sum   Mg64
_cell_volume   1480.09622504
_cell_formula_units_Z   64
loop_
 _symmetry_equiv_pos_site_id
 _symmetry_equiv_pos_as_xyz
  1  'x, y, z'
loop_
 _atom_site_type_symbol
 _atom_site_label
 _atom_site_symmetry_multiplicity
 _atom_site_fract_x
 _atom_site_fract_y
 _atom_site_fract_z
 _atom_site_occupancy
  H  H0  1  0.07077633  0.16197039  0.13306676  1
  Mg  Mg1  1  0.15773759  0.07582647  0.37166788  1
  Mg  Mg2  1  0.31861689  0.15306428  0.15316420  1
  Mg  Mg3  1  0.40621996  0.09292279  0.40092794  1
  Mg  Mg4  1  0.57584157  0.16894468  0.13464121  1
  Mg  Mg5  1  0.66679087  0.10042748  0.37343028  1
  Mg  Mg6  1  0.83098933  0.17785845  0.10391405  1
  Mg  Mg7  1  0.89711475  0.07223635  0.35866072  1
  Mg  Mg8  1  0.08970674  0.40447172  0.12270807  1
  Mg  Mg9  1  0.18600725  0.32429264  0.36952723  1
  Mg  Mg10  1  0.34881271  0.40735969  0.13400442  1
  Mg  Mg11  1  0.42212402  0.34922417  0.37552718  1
  Mg  Mg12  1  0.57997822  0.40013179  0.11464247  1
  Mg  Mg13  1  0.67002476  0.34546015  0.37407636  1
  Mg  Mg14  1  0.85466289  0.41638523  0.15236189  1
  Mg  Mg15  1  0.92707891  0.33688366  0.37396181  1
  Mg  Mg16  1  0.07474909  0.68060550  0.12133970  1
  Mg  Mg17  1  0.17420200  0.58738674  0.38356356  1
  Mg  Mg18  1  0.33146224  0.66297399  0.11662360  1
  Mg  Mg19  1  0.43076606  0.58969398  0.38408325  1
  Mg  Mg20  1  0.59665048  0.69356711  0.11015741  1
  Mg  Mg21  1  0.66434802  0.57722800  0.39291140  1
  Mg  Mg22  1  0.82854162  0.65866383  0.08682705  1
  Mg  Mg23  1  0.91573985  0.58618206  0.35991605  1
  Mg  Mg24  1  0.08667939  0.90681896  0.14773818  1
  Mg  Mg25  1  0.18650895  0.84902388  0.38510071  1
  Mg  Mg26  1  0.31974800  0.92219220  0.12909560  1
  Mg  Mg27  1  0.41863325  0.83385063  0.35087869  1
  Mg  Mg28  1  0.58446485  0.92500580  0.10721954  1
  Mg  Mg29  1  0.66486796  0.82817127  0.37305228  1
  Mg  Mg30  1  0.85434819  0.92737460  0.11590427  1
  Mg  Mg31  1  0.93020131  0.84503141  0.40480128  1
  Mg  Mg32  1  0.10399683  0.18029529  0.62966579  1
  Mg  Mg33  1  0.15073934  0.07328839  0.90478791  1
  Mg  Mg34  1  0.33608429  0.15780387  0.60764475  1
  Mg  Mg35  1  0.40536448  0.08510410  0.85168939  1
  Mg  Mg36  1  0.58959954  0.15990341  0.61939035  1
  Mg  Mg37  1  0.69021818  0.08984503  0.87465107  1
  Mg  Mg38  1  0.83044939  0.16400779  0.60276959  1
  Mg  Mg39  1  0.91712066  0.08424987  0.87689043  1
  Mg  Mg40  1  0.07468506  0.39487824  0.61614148  1
  Mg  Mg41  1  0.15164471  0.32560224  0.86864588  1
  Mg  Mg42  1  0.32539080  0.41181147  0.62896935  1
  Mg  Mg43  1  0.40710856  0.33038098  0.85251053  1
  Mg  Mg44  1  0.56298932  0.41329997  0.62161473  1
  Mg  Mg45  1  0.65420112  0.31879903  0.88454913  1
  Mg  Mg46  1  0.82173652  0.38809762  0.63242942  1
  Mg  Mg47  1  0.93331641  0.33290646  0.85326443  1
  Mg  Mg48  1  0.07710946  0.65983074  0.63486209  1
  Mg  Mg49  1  0.16156446  0.58629378  0.88401623  1
  Mg  Mg50  1  0.33235189  0.66518976  0.64056835  1
  Mg  Mg51  1  0.41157034  0.59616430  0.88304836  1
  Mg  Mg52  1  0.61317029  0.67941632  0.62657222  1
  Mg  Mg53  1  0.66806469  0.58455515  0.85228840  1
  Mg  Mg54  1  0.81966724  0.64166059  0.61359788  1
  Mg  Mg55  1  0.90394210  0.57780427  0.89113382  1
  Mg  Mg56  1  0.07695207  0.90815724  0.65114809  1
  Mg  Mg57  1  0.16968357  0.84980730  0.87946321  1
  Mg  Mg58  1  0.34115758  0.93241594  0.62895057  1
  Mg  Mg59  1  0.40835167  0.82907038  0.86861721  1
  Mg  Mg60  1  0.59799248  0.92954755  0.63105973  1
  Mg  Mg61  1  0.65502377  0.83482707  0.87218910  1
  Mg  Mg62  1  0.83317570  0.91184617  0.63932212  1
  Mg  Mg63  1  0.91118342  0.84190981  0.86205339  1
