data_image0
_chemical_formula_structural       Sr8Nb4O18
_chemical_formula_sum              "Sr8 Nb4 O18"
_cell_length_a       5.9665977153726955
_cell_length_b       15.931953939950697
_cell_length_c       5.966320274882692
_cell_angle_alpha    90.00265831639241
_cell_angle_beta     120.00040328151321
_cell_angle_gamma    89.99775064403005

_space_group_name_H-M_alt    "P 1"
_space_group_IT_number       1

loop_
  _space_group_symop_operation_xyz
  'x, y, z'

loop_
  _atom_site_type_symbol
  _atom_site_label
  _atom_site_symmetry_multiplicity
  _atom_site_fract_x
  _atom_site_fract_y
  _atom_site_fract_z
  _atom_site_occupancy
  Sr  Sr1       1.0  0.99999997  0.0  0.9999999400000001  1.0000
  Sr  Sr2       1.0  3.000000000000176e-08  0.50000001  6e-08  1.0000
  Sr  Sr3       1.0  0.3337100100000001  0.8607035299999998  0.6667244600000001  1.0000
  Sr  Sr4       1.0  0.66628993  0.13929647  0.33327544  1.0000
  Sr  Sr5       1.0  0.6667878899999999  0.36072428  0.3333830600000001  1.0000
  Sr  Sr6       1.0  0.33321217000000003  0.63927571  0.66661704  1.0000
  Sr  Sr7       1.0  0.00011867999999999998  0.74998666  4.26e-06  1.0000
  Sr  Sr8       1.0  0.9998813099999999  0.2500133899999999  0.9999957499999999  1.0000
  Nb  Nb1       1.0  0.33295179000000014  0.15409827  0.6665196500000001  1.0000
  Nb  Nb2       1.0  0.6670481599999998  0.8459017300000001  0.33348026  1.0000
  Nb  Nb3       1.0  0.6665860799999997  0.65408461  0.3332405700000001  1.0000
  Nb  Nb4       1.0  0.33341397000000006  0.34591538000000005  0.66675953  1.0000
  O   O1        1.0  0.35043768000000003  0.89827797  0.27341856  1.0000
  O   O2        1.0  0.6495622000000001  0.101722  0.7265812800000001  1.0000
  O   O3        1.0  0.7274005299999998  0.8979544300000001  0.07663995  1.0000
  O   O4        1.0  0.2725994500000001  0.10204555000000001  0.92335995  1.0000
  O   O5        1.0  0.9239501799999998  0.8980772  0.65035664  1.0000
  O   O6        1.0  0.07604972999999998  0.10192281000000002  0.34964325  1.0000
  O   O7        1.0  0.6504755900000001  0.39801106  0.7269442300000001  1.0000
  O   O8        1.0  0.34952453  0.60198891  0.27305594  1.0000
  O   O9        1.0  0.27344952000000006  0.3981956899999999  0.92350865  1.0000
  O   O10       1.0  0.7265505499999999  0.60180432  0.07649145  1.0000
  O   O11       1.0  0.07675252999999999  0.3981384600000001  0.34984455  1.0000
  O   O12       1.0  0.9232475499999999  0.6018615499999999  0.65015557  1.0000
  O   O13       1.0  0.9627964299999999  0.7499151000000001  0.40550363999999994  1.0000
  O   O14       1.0  0.03720359000000011  0.25008491  0.59449638  1.0000
  O   O15       1.0  0.59467241  0.7500467099999999  0.5571709700000002  1.0000
  O   O16       1.0  0.40532759000000007  0.24995330000000002  0.44282903000000007  1.0000
  O   O17       1.0  0.44295526  0.75001305  0.03740989  1.0000
  O   O18       1.0  0.55704473  0.24998694000000002  0.9625900999999999  1.0000
