data_image0
_chemical_formula_structural       Sr8Mn6O20
_chemical_formula_sum              "Sr8 Mn6 O20"
_cell_length_a       5.541443162332761
_cell_length_b       6.841263969933991
_cell_length_c       12.829163426024403
_cell_angle_alpha    89.96768345892544
_cell_angle_beta     90.00035133713025
_cell_angle_gamma    113.89115798426923

_space_group_name_H-M_alt    "P 1"
_space_group_IT_number       1

loop_
  _space_group_symop_operation_xyz
  'x, y, z'

loop_
  _atom_site_type_symbol
  _atom_site_label
  _atom_site_symmetry_multiplicity
  _atom_site_fract_x
  _atom_site_fract_y
  _atom_site_fract_z
  _atom_site_occupancy
  Sr  Sr1       1.0  0.9687981599999999  0.9375794599999998  0.35719435  1.0000
  Sr  Sr2       1.0  0.03156437  0.06313606  0.6426368  1.0000
  Sr  Sr3       1.0  0.5312752599999999  0.0625492  0.8577011600000001  1.0000
  Sr  Sr4       1.0  0.46902836999999986  0.9380456699999999  0.14280263  1.0000
  Sr  Sr5       1.0  0.7616573499999999  0.5232871499999999  0.1147159  1.0000
  Sr  Sr6       1.0  0.2385948499999999  0.4772131699999999  0.88351715  1.0000
  Sr  Sr7       1.0  0.7386425199999997  0.4773028  0.61618604  1.0000
  Sr  Sr8       1.0  0.2614263  0.5228373599999999  0.38504182  1.0000
  Mn  Mn1       1.0  0.4999847099999999  0.9999692599999997  0.49993298  1.0000
  Mn  Mn2       1.0  0.00036781  0.00072852  0.00041544  1.0000
  Mn  Mn3       1.0  0.6301903199999999  0.26038383  0.34774382000000004  1.0000
  Mn  Mn4       1.0  0.3707864699999999  0.74157768  0.65251099  1.0000
  Mn  Mn5       1.0  0.8700891099999999  0.7401647999999998  0.8466772000000001  1.0000
  Mn  Mn6       1.0  0.13038813  0.26078454  0.15238167  1.0000
  O   O1        1.0  0.5372737499999998  0.07451677  0.64513625  1.0000
  O   O2        1.0  0.4623939099999999  0.9248481699999997  0.35556881  1.0000
  O   O3        1.0  0.9624167499999999  0.92485204  0.14473561  1.0000
  O   O4        1.0  0.03751039  0.07500797  0.85495132  1.0000
  O   O5        1.0  0.7752309399999999  0.55048334  0.3416319600000001  1.0000
  O   O6        1.0  0.22505129999999998  0.4500970099999999  0.65777081  1.0000
  O   O7        1.0  0.7246361899999999  0.44917106  0.84227372  1.0000
  O   O8        1.0  0.27539815  0.5508470199999999  0.15861051000000004  1.0000
  O   O9        1.0  0.3804432899999999  0.21915907  0.46291902  1.0000
  O   O10       1.0  0.16149868999999997  0.78074121  0.53739688  1.0000
  O   O11       1.0  0.66245221  0.7816161900000002  0.9623317500000002  1.0000
  O   O12       1.0  0.8806544199999998  0.21988636  0.03735335  1.0000
  O   O13       1.0  0.61920095  0.7807131699999998  0.53738969  1.0000
  O   O14       1.0  0.8387331299999998  0.21912012  0.46290329  1.0000
  O   O15       1.0  0.33924218999999983  0.21988172999999997  0.03736264  1.0000
  O   O16       1.0  0.11917279999999997  0.7816188  0.96232975  1.0000
  O   O17       1.0  0.36240277999999987  0.2250360899999999  0.25013825  1.0000
  O   O18       1.0  0.13527406000000003  0.7709263999999999  0.74980785  1.0000
  O   O19       1.0  0.6356364299999999  0.77090118  0.74981022  1.0000
  O   O20       1.0  0.8625887500000001  0.2250264399999999  0.25012486  1.0000
