data_image0
_chemical_formula_structural       Ni2Mn4O8
_chemical_formula_sum              "Ni2 Mn4 O8"
_cell_length_a       5.923483089755765
_cell_length_b       6.015753619490945
_cell_length_c       6.0179369117287695
_cell_angle_alpha    59.68798935504295
_cell_angle_beta     60.49359380470266
_cell_angle_gamma    60.53035689523184

_space_group_name_H-M_alt    "P 1"
_space_group_IT_number       1

loop_
  _space_group_symop_operation_xyz
  'x, y, z'

loop_
  _atom_site_type_symbol
  _atom_site_label
  _atom_site_symmetry_multiplicity
  _atom_site_fract_x
  _atom_site_fract_y
  _atom_site_fract_z
  _atom_site_occupancy
  Ni  Ni1       1.0  0.6235070700000002  0.6252276200000001  0.1273122299999999  1.0000
  Ni  Ni2       1.0  0.6260469800000005  0.12268759000000008  0.62477252  1.0000
  Mn  Mn1       1.0  0.6239652700000002  0.62540364  0.62546712  1.0000
  Mn  Mn2       1.0  0.12483576  0.6245329700000001  0.6245965499999999  1.0000
  Mn  Mn3       1.0  0.009708210000000049  0.9885911999999999  0.9912592699999999  1.0000
  Mn  Mn4       1.0  0.23955841  0.2587407700000001  0.26140878  1.0000
  O   O1        1.0  0.8831787899999999  0.8482246099999998  0.84828654  1.0000
  O   O2        1.0  0.4205053499999997  0.84867513  0.84626624  1.0000
  O   O3        1.0  0.82968978  0.40171353  0.4017753800000001  1.0000
  O   O4        1.0  0.3654464100000001  0.4037337899999999  0.40132494  1.0000
  O   O5        1.0  0.8722212000000004  0.8471327399999999  0.4103310099999998  1.0000
  O   O6        1.0  0.8724658999999998  0.4111941400000001  0.84552647  1.0000
  O   O7        1.0  0.37968476999999995  0.83966901  0.40286731  1.0000
  O   O8        1.0  0.37918641  0.4044735700000001  0.83880593  1.0000
