data_image0
_chemical_formula_structural       Mn4O8
_chemical_formula_sum              "Mn4 O8"
_cell_length_a       4.614592632006283
_cell_length_b       9.353727903012867
_cell_length_c       2.906089946000001
_cell_angle_alpha    89.99999964225572
_cell_angle_beta     89.99999832483982
_cell_angle_gamma    89.99981041417902

_space_group_name_H-M_alt    "P 1"
_space_group_IT_number       1

loop_
  _space_group_symop_operation_xyz
  'x, y, z'

loop_
  _atom_site_type_symbol
  _atom_site_label
  _atom_site_symmetry_multiplicity
  _atom_site_fract_x
  _atom_site_fract_y
  _atom_site_fract_z
  _atom_site_occupancy
  Mn  Mn1       1.0  0.4704189699999999  0.6354358399999999  0.24999999999999997  1.0000
  Mn  Mn2       1.0  0.029582469999999996  0.1354341  0.24999999999999997  1.0000
  Mn  Mn3       1.0  0.5295805999999998  0.36456424  0.7499999999999998  1.0000
  Mn  Mn4       1.0  0.9704175599999997  0.86456576  0.75  1.0000
  O   O1        1.0  0.1755519699999999  0.7793442999999999  0.24999999999999997  1.0000
  O   O2        1.0  0.3244499399999999  0.27934533  0.25000001  1.0000
  O   O3        1.0  0.8244480699999998  0.22065569000000002  0.7500000099999999  1.0000
  O   O4        1.0  0.6755502599999998  0.72065474  0.7499999999999998  1.0000
  O   O5        1.0  0.7125020299999999  0.46589378000000004  0.24999998999999998  1.0000
  O   O6        1.0  0.7874989499999999  0.9658941299999997  0.25000001  1.0000
  O   O7        1.0  0.2874981599999999  0.5341061  0.7500000099999999  1.0000
  O   O8        1.0  0.21250102  0.03410597  0.75  1.0000
