data_image0
_chemical_formula_structural       O16Ce8Ba4
_chemical_formula_sum              "O16 Ce8 Ba4"
_cell_length_a       10.807332459
_cell_length_b       3.674509061
_cell_length_c       12.725025073
_cell_angle_alpha    90.00000023071978
_cell_angle_beta     89.99999998758229
_cell_angle_gamma    90.00000025603477

_space_group_name_H-M_alt    "P 1"
_space_group_IT_number       1

loop_
  _space_group_symop_operation_xyz
  'x, y, z'

loop_
  _atom_site_type_symbol
  _atom_site_label
  _atom_site_symmetry_multiplicity
  _atom_site_fract_x
  _atom_site_fract_y
  _atom_site_fract_z
  _atom_site_occupancy
  O   O1        1.0  0.7889177900000001  0.25000001000000005  0.17321478  1.0000
  O   O2        1.0  0.28891779  0.25  0.3267852399999999  1.0000
  O   O3        1.0  0.21108223  0.75  0.82678522  1.0000
  O   O4        1.0  0.7110821900000001  0.75  0.6732147499999999  1.0000
  O   O5        1.0  0.8778816899999998  0.24999999  0.48152804  1.0000
  O   O6        1.0  0.3778816899999999  0.2500000100000001  0.01847196  1.0000
  O   O7        1.0  0.12211829  0.75  0.51847196  1.0000
  O   O8        1.0  0.62211834  0.7499999999999999  0.9815280399999999  1.0000
  O   O9        1.0  0.98520974  0.25000001000000005  0.7160635399999999  1.0000
  O   O10       1.0  0.4852097799999999  0.24999998000000004  0.78393648  1.0000
  O   O11       1.0  0.01479024  0.74999999  0.28393647  1.0000
  O   O12       1.0  0.51479022  0.75000002  0.21606352  1.0000
  O   O13       1.0  0.5717463200000001  0.25000001000000005  0.4238203  1.0000
  O   O14       1.0  0.07174631  0.25  0.07617971  1.0000
  O   O15       1.0  0.42825365  0.74999999  0.57617969  1.0000
  O   O16       1.0  0.92825371  0.7500000100000003  0.9238203  1.0000
  Ce  Ce1       1.0  0.57754445  0.25000002  0.11150826  1.0000
  Ce  Ce2       1.0  0.07754445  0.24999999  0.38849173  1.0000
  Ce  Ce3       1.0  0.42245557  0.7499999900000001  0.8884917399999999  1.0000
  Ce  Ce4       1.0  0.9224555500000001  0.75  0.61150827  1.0000
  Ce  Ce5       1.0  0.07733603  0.25  0.88679273  1.0000
  Ce  Ce6       1.0  0.577336  0.25  0.61320728  1.0000
  Ce  Ce7       1.0  0.92266398  0.7500000100000003  0.11320726999999998  1.0000
  Ce  Ce8       1.0  0.42266399  0.75  0.38679272  1.0000
  Ba  Ba1       1.0  0.7478518099999999  0.24999998000000004  0.8529199099999999  1.0000
  Ba  Ba2       1.0  0.24785177  0.24999998000000004  0.6470800799999998  1.0000
  Ba  Ba3       1.0  0.2521482  0.75000002  0.14708009  1.0000
  Ba  Ba4       1.0  0.75214821  0.75  0.35291992  1.0000
