data_image0
_chemical_formula_structural       BaTiO3
_chemical_formula_sum              "Ba1 Ti1 O3"
_cell_length_a       4.030266951
_cell_length_b       4.030266915
_cell_length_c       4.1280289969999995
_cell_angle_alpha    90.00000079989623
_cell_angle_beta     90.0000012081309
_cell_angle_gamma    89.99999931761408

_space_group_name_H-M_alt    "P 1"
_space_group_IT_number       1

loop_
  _space_group_symop_operation_xyz
  'x, y, z'

loop_
  _atom_site_type_symbol
  _atom_site_label
  _atom_site_symmetry_multiplicity
  _atom_site_fract_x
  _atom_site_fract_y
  _atom_site_fract_z
  _atom_site_occupancy
  Ba  Ba1       1.0  0.50000002  0.50000002  0.51754921  1.0000
  Ti  Ti1       1.0  1.1e-07  9e-08  0.00297354  1.0000
  O   O1        1.0  0.9999999699999998  0.99999998  0.54822776  1.0000
  O   O2        1.0  0.49999993  0.9999999699999998  0.0356247  1.0000
  O   O3        1.0  0.9999999600000002  0.4999999500000001  0.03562468  1.0000
