data_image0
_chemical_formula_structural       In4O10Sr4
_chemical_formula_sum              "In4 O10 Sr4"
_cell_length_a       5.922147283890739
_cell_length_b       6.145950605007501
_cell_length_c       9.053577867623119
_cell_angle_alpha    109.8431652548431
_cell_angle_beta     109.1008076276958
_cell_angle_gamma    89.99709759238108

_space_group_name_H-M_alt    "P 1"
_space_group_IT_number       1

loop_
  _space_group_symop_operation_xyz
  'x, y, z'

loop_
  _atom_site_type_symbol
  _atom_site_label
  _atom_site_symmetry_multiplicity
  _atom_site_fract_x
  _atom_site_fract_y
  _atom_site_fract_z
  _atom_site_occupancy
  In  In1       1.0  0.5019706200000001  0.5000249400000001  2.6340000000000002e-05  1.0000
  In  In2       1.0  0.00197061  0.9999944899999998  1.899e-05  1.0000
  In  In3       1.0  0.7913101000000001  0.6867521500000001  0.50001357  1.0000
  In  In4       1.0  0.29128852  0.31323296000000006  0.5000133099999999  1.0000
  O   O1        1.0  0.23928739999999998  0.7397837900000002  0.9649233  1.0000
  O   O2        1.0  0.2731544200000001  0.26147305  0.03511075  1.0000
  O   O3        1.0  0.7731343900000003  0.27361861000000004  0.03506398000000001  1.0000
  O   O4        1.0  0.7392787500000001  0.7251468400000001  0.96492498  1.0000
  O   O5        1.0  0.5916943000000002  0.72111493  0.2780009800000002  1.0000
  O   O6        1.0  0.3134846500000001  0.2789019300000001  0.7219825500000001  1.0000
  O   O7        1.0  0.8135496000000001  0.9431079100000002  0.7219801300000002  1.0000
  O   O8        1.0  0.09168964000000002  0.05686559000000002  0.27799606000000004  1.0000
  O   O9        1.0  0.14875049000000004  0.6323531499999999  0.49999575000000007  1.0000
  O   O10       1.0  0.6487217100000001  0.36764456  0.49999257000000014  1.0000
  Sr  Sr1       1.0  0.1245936  0.63300328  0.21516008  1.0000
  Sr  Sr2       1.0  0.9097679300000003  0.36694348  0.7848237700000001  1.0000
  Sr  Sr3       1.0  0.40977410000000003  0.9178981400000004  0.7848193700000002  1.0000
  Sr  Sr4       1.0  0.6245791900000001  0.08214021000000002  0.21515352000000001  1.0000
