data_image0
_chemical_formula_structural       La4O12Ti3
_chemical_formula_sum              "La4 O12 Ti3"
_cell_length_a       5.637417528051199
_cell_length_b       5.637551235424183
_cell_length_c       9.418068456620476
_cell_angle_alpha    72.57973154365789
_cell_angle_beta     72.58534459832899
_cell_angle_gamma    60.00127058895525

_space_group_name_H-M_alt    "P 1"
_space_group_IT_number       1

loop_
  _space_group_symop_operation_xyz
  'x, y, z'

loop_
  _atom_site_type_symbol
  _atom_site_label
  _atom_site_symmetry_multiplicity
  _atom_site_fract_x
  _atom_site_fract_y
  _atom_site_fract_z
  _atom_site_occupancy
  La  La1       1.0  0.8652749600000003  0.8652613499999999  0.4042004699999999  1.0000
  La  La2       1.0  0.13472506999999995  0.13473862999999997  0.5957995099999999  1.0000
  La  La3       1.0  0.28729435  0.28717908  0.138237  1.0000
  La  La4       1.0  0.7127056500000002  0.7128209200000001  0.86176299  1.0000
  O   O1        1.0  0.4432222000000001  0.30612917999999983  0.36642546  1.0000
  O   O2        1.0  0.8841970499999999  0.44322055000000005  0.36640917999999995  1.0000
  O   O3        1.0  0.30621144999999994  0.8841523599999999  0.36635373000000004  1.0000
  O   O4        1.0  0.5567778200000001  0.69387081  0.6335745399999999  1.0000
  O   O5        1.0  0.11580296  0.55677944  0.63359081  1.0000
  O   O6        1.0  0.6937885600000004  0.11584763000000001  0.6336462699999998  1.0000
  O   O7        1.0  0.29192480000000004  0.7327629000000001  0.1233871  1.0000
  O   O8        1.0  0.8519067500000002  0.29151299  0.12358586000000002  1.0000
  O   O9        1.0  0.73297214  0.8516826600000001  0.12339098  1.0000
  O   O10       1.0  0.7080751600000003  0.26723712000000005  0.87661291  1.0000
  O   O11       1.0  0.14809324  0.7084870599999995  0.87641412  1.0000
  O   O12       1.0  0.26702786999999994  0.14831736000000006  0.87660902  1.0000
  Ti  Ti1       1.0  0.5761118700000003  0.5760215099999998  0.2717354900000001  1.0000
  Ti  Ti2       1.0  0.4238881300000001  0.4239784699999999  0.72826451  1.0000
  Ti  Ti3       1.0  0.9999999900000002  1.0000000014119765e-08  0.9999999999999999  1.0000
