data_image0
_chemical_formula_structural       Nb2O5
_chemical_formula_sum              "Nb2 O5"
_cell_length_a       6.888330702998206
_cell_length_b       3.935099552612875
_cell_length_c       3.9923706398452623
_cell_angle_alpha    90.00202150383701
_cell_angle_beta     90.49666615382054
_cell_angle_gamma    73.4032108280792

_space_group_name_H-M_alt    "P 1"
_space_group_IT_number       1

loop_
  _space_group_symop_operation_xyz
  'x, y, z'

loop_
  _atom_site_type_symbol
  _atom_site_label
  _atom_site_symmetry_multiplicity
  _atom_site_fract_x
  _atom_site_fract_y
  _atom_site_fract_z
  _atom_site_occupancy
  Nb  Nb1       1.0  0.7066585900000001  0.6466896400000001  0.95341719  1.0000
  Nb  Nb2       1.0  0.29334141  0.35331036  0.04658281  1.0000
  O   O1        1.0  0.0  0.49999999999999994  1.0  1.0000
  O   O2        1.0  0.6295863000000002  0.18521175000000012  0.9971102800000001  1.0000
  O   O3        1.0  0.37041370000000007  0.81478825  0.00288972  1.0000
  O   O4        1.0  0.7030608899999999  0.6484882600000001  0.4892398  1.0000
  O   O5        1.0  0.29693911  0.3515117400000001  0.5107602  1.0000
