data_image0
_chemical_formula_structural       O16La8Ba4
_chemical_formula_sum              "O16 La8 Ba4"
_cell_length_a       10.899623537000004
_cell_length_b       3.7295881190000006
_cell_length_c       12.856249102000003
_cell_angle_alpha    89.99999994898435
_cell_angle_beta     90.00000300975617
_cell_angle_gamma    89.99999888367088

_space_group_name_H-M_alt    "P 1"
_space_group_IT_number       1

loop_
  _space_group_symop_operation_xyz
  'x, y, z'

loop_
  _atom_site_type_symbol
  _atom_site_label
  _atom_site_symmetry_multiplicity
  _atom_site_fract_x
  _atom_site_fract_y
  _atom_site_fract_z
  _atom_site_occupancy
  O   O1        1.0  0.7873417299999997  0.2500000099999999  0.17598145  1.0000
  O   O2        1.0  0.28734173  0.24999999  0.3240185400000001  1.0000
  O   O3        1.0  0.21265825999999993  0.7500000100000002  0.82401854  1.0000
  O   O4        1.0  0.7126582699999999  0.75  0.67598148  1.0000
  O   O5        1.0  0.8751275699999999  0.24999999  0.48219310000000004  1.0000
  O   O6        1.0  0.3751275699999999  0.25000001  0.0178069  1.0000
  O   O7        1.0  0.12487243  0.75  0.51780691  1.0000
  O   O8        1.0  0.6248724099999999  0.75  0.9821930900000001  1.0000
  O   O9        1.0  0.9898197799999999  0.2500000299999999  0.7154397700000001  1.0000
  O   O10       1.0  0.48981974999999994  0.2499999800000001  0.7845602300000002  1.0000
  O   O11       1.0  0.01018021  0.7499999700000001  0.2845602500000001  1.0000
  O   O12       1.0  0.5101802  0.75000002  0.21543974  1.0000
  O   O13       1.0  0.5710886199999998  0.25000001  0.42281131  1.0000
  O   O14       1.0  0.07108862  0.24999999  0.07718869  1.0000
  O   O15       1.0  0.4289114  0.74999999  0.57718868  1.0000
  O   O16       1.0  0.9289113899999999  0.7500000300000002  0.9228113100000002  1.0000
  La  La1       1.0  0.5755509199999999  0.2499999999999999  0.11345421000000001  1.0000
  La  La2       1.0  0.07555092  0.24999998  0.3865457900000001  1.0000
  La  La3       1.0  0.42444908  0.75  0.8865457700000002  1.0000
  La  La4       1.0  0.92444908  0.7500000100000002  0.61345422  1.0000
  La  La5       1.0  0.08025271  0.25000002  0.88727701  1.0000
  La  La6       1.0  0.5802527199999998  0.25  0.6127229900000001  1.0000
  La  La7       1.0  0.9197472899999999  0.75000001  0.11272299  1.0000
  La  La8       1.0  0.4197472999999999  0.74999999  0.38727701  1.0000
  Ba  Ba1       1.0  0.7482490199999999  0.2500000100000001  0.8544524700000001  1.0000
  Ba  Ba2       1.0  0.24824904  0.25  0.64554753  1.0000
  Ba  Ba3       1.0  0.25175098  0.74999999  0.14554753  1.0000
  Ba  Ba4       1.0  0.75175099  0.74999998  0.3544524700000001  1.0000
