data_image0
_chemical_formula_structural       Ba6O18Fe6
_chemical_formula_sum              "Ba6 O18 Fe6"
_cell_length_a       5.745084695684927
_cell_length_b       5.727000384922169
_cell_length_c       14.018088088256471
_cell_angle_alpha    89.55857807840391
_cell_angle_beta     90.88129540271827
_cell_angle_gamma    120.10446659647282

_space_group_name_H-M_alt    "P 1"
_space_group_IT_number       1

loop_
  _space_group_symop_operation_xyz
  'x, y, z'

loop_
  _atom_site_type_symbol
  _atom_site_label
  _atom_site_symmetry_multiplicity
  _atom_site_fract_x
  _atom_site_fract_y
  _atom_site_fract_z
  _atom_site_occupancy
  Ba  Ba1       1.0  0.0020212299999999997  0.00404648  0.24999795999999996  1.0000
  Ba  Ba2       1.0  0.9971852399999999  0.9943610400000001  0.7500024900000001  1.0000
  Ba  Ba3       1.0  0.34192674  0.6692015999999998  0.41079064  1.0000
  Ba  Ba4       1.0  0.32730229999999993  0.6692641100000001  0.08920524  1.0000
  Ba  Ba5       1.0  0.6747780999999999  0.33145868  0.5894970400000001  1.0000
  Ba  Ba6       1.0  0.6567113499999999  0.33153325  0.91050323  1.0000
  O   O1        1.0  0.52515916  0.48213269  0.25093564  1.0000
  O   O2        1.0  0.9569615799999996  0.4821455800000001  0.24905693  1.0000
  O   O3        1.0  0.52412514  0.04821675  0.24999379999999996  1.0000
  O   O4        1.0  0.48027785999999983  0.5062987299999999  0.7377993799999999  1.0000
  O   O5        1.0  0.026024220000000015  0.50633213  0.76221587  1.0000
  O   O6        1.0  0.47160479000000005  0.9431830000000001  0.7499912899999999  1.0000
  O   O7        1.0  0.8364097899999999  0.17742153  0.41193293  1.0000
  O   O8        1.0  0.34101791999999986  0.17744514  0.08806140999999999  1.0000
  O   O9        1.0  0.8388026299999999  0.6578679299999999  0.41419430999999995  1.0000
  O   O10       1.0  0.8190535699999999  0.6578989399999999  0.08580351  1.0000
  O   O11       1.0  0.3595261499999999  0.17744964  0.41484716999999993  1.0000
  O   O12       1.0  0.8179766099999998  0.17752233  0.08514217999999998  1.0000
  O   O13       1.0  0.18198839000000008  0.82723182  0.58236718  1.0000
  O   O14       1.0  0.64530958  0.8273341100000002  0.9176207999999999  1.0000
  O   O15       1.0  0.17449956  0.3407982  0.5782838299999999  1.0000
  O   O16       1.0  0.16636426  0.34088378  0.92172682  1.0000
  O   O17       1.0  0.6856777499999998  0.8410578899999999  0.5769803399999999  1.0000
  O   O18       1.0  0.1554139799999999  0.8411296699999999  0.9230245299999998  1.0000
  Fe  Fe1       1.0  0.008066240000000098  0.9971692099999999  0.50525664  1.0000
  Fe  Fe2       1.0  0.9891613  0.9972813799999999  0.99475186  1.0000
  Fe  Fe3       1.0  0.34485395  0.65985665  0.65324376  1.0000
  Fe  Fe4       1.0  0.3150358600000001  0.65992413  0.84676287  1.0000
  Fe  Fe5       1.0  0.6739966199999999  0.33675891  0.34453713  1.0000
  Fe  Fe6       1.0  0.6627695  0.3367973399999999  0.15545959  1.0000
