data_image0
_chemical_formula_structural       In4La4O12
_chemical_formula_sum              "In4 La4 O12"
_cell_length_a       6.047480676000352
_cell_length_b       8.346168769000446
_cell_length_c       5.799603429000164
_cell_angle_alpha    89.99999605245185
_cell_angle_beta     90.00000934778505
_cell_angle_gamma    89.9999908960482

_space_group_name_H-M_alt    "P 1"
_space_group_IT_number       1

loop_
  _space_group_symop_operation_xyz
  'x, y, z'

loop_
  _atom_site_type_symbol
  _atom_site_label
  _atom_site_symmetry_multiplicity
  _atom_site_fract_x
  _atom_site_fract_y
  _atom_site_fract_z
  _atom_site_occupancy
  In  In1       1.0  0.4999977400000001  0.99999944  0.9999966099999998  1.0000
  In  In2       1.0  2.24e-06  0.49999908000000004  0.50000318  1.0000
  In  In3       1.0  0.49999779000000005  0.5000005399999999  0.9999965999999999  1.0000
  In  In4       1.0  2.23e-06  9.2e-07  0.5000031899999999  1.0000
  La  La1       1.0  0.4424921800000002  0.25000003  0.4832213299999999  1.0000
  La  La2       1.0  0.9424875899999999  0.25  0.01677862  1.0000
  La  La3       1.0  0.55751269  0.74999998  0.5167729299999999  1.0000
  La  La4       1.0  0.05750811  0.7499999600000001  0.9832269099999998  1.0000
  O   O1        1.0  0.5477593  0.25  0.8848580499999998  1.0000
  O   O2        1.0  0.04776091  0.2500000000000001  0.6151426099999999  1.0000
  O   O3        1.0  0.4522395900000001  0.7500000000000001  0.11514056  1.0000
  O   O4        1.0  0.9522412100000002  0.75  0.38486008  1.0000
  O   O5        1.0  0.6980275900000001  0.06080467999999999  0.3044745899999999  1.0000
  O   O6        1.0  0.19802745000000002  0.43919484000000003  0.19552525  1.0000
  O   O7        1.0  0.3019722  0.56080661  0.69552474  1.0000
  O   O8        1.0  0.8019719800000001  0.9391939100000001  0.8044751599999999  1.0000
  O   O9        1.0  0.30197216  0.9391933400000002  0.6955247599999999  1.0000
  O   O10       1.0  0.8019719800000001  0.5608060400000001  0.8044750099999999  1.0000
  O   O11       1.0  0.6980276100000002  0.4391953900000001  0.3044745099999999  1.0000
  O   O12       1.0  0.19802745000000002  0.060805229999999995  0.19552531  1.0000
