data_image0
_chemical_formula_structural       Ba8O60Ti26
_chemical_formula_sum              "Ba8 O60 Ti26"
_cell_length_a       10.016739397212733
_cell_length_b       10.016739413136207
_cell_length_c       14.258101458006358
_cell_angle_alpha    90.00003320238108
_cell_angle_beta     90.0000327972642
_cell_angle_gamma    119.87783455978386

_space_group_name_H-M_alt    "P 1"
_space_group_IT_number       1

loop_
  _space_group_symop_operation_xyz
  'x, y, z'

loop_
  _atom_site_type_symbol
  _atom_site_label
  _atom_site_symmetry_multiplicity
  _atom_site_fract_x
  _atom_site_fract_y
  _atom_site_fract_z
  _atom_site_occupancy
  Ba  Ba1       1.0  0.021002840000000002  0.31493594  0.90942297  1.0000
  Ba  Ba2       1.0  0.6850640600000002  0.9789971700000001  0.09057704  1.0000
  Ba  Ba3       1.0  0.18506400000000012  0.47899714000000004  0.40942288  1.0000
  Ba  Ba4       1.0  0.52100286  0.8149359999999999  0.59057712  1.0000
  Ba  Ba5       1.0  0.97899717  0.6850640600000001  0.09057704  1.0000
  Ba  Ba6       1.0  0.31493593999999997  0.02100284  0.9094229699999999  1.0000
  Ba  Ba7       1.0  0.814936  0.52100286  0.59057712  1.0000
  Ba  Ba8       1.0  0.47899714  0.18506400000000003  0.4094228799999999  1.0000
  O   O1        1.0  0.1489645  0.63821941  0.56765506  1.0000
  O   O2        1.0  0.3617805800000001  0.8510354899999999  0.43234493  1.0000
  O   O3        1.0  0.86178074  0.3510355700000001  0.0676551  1.0000
  O   O4        1.0  0.6489644300000001  0.13821925  0.93234491  1.0000
  O   O5        1.0  0.85103549  0.3617805899999999  0.43234493  1.0000
  O   O6        1.0  0.6382194099999999  0.1489645  0.56765507  1.0000
  O   O7        1.0  0.13821925000000013  0.64896443  0.93234491  1.0000
  O   O8        1.0  0.35103557  0.86178075  0.0676551  1.0000
  O   O9        1.0  0.8131674699999999  0.46860449999999987  0.90409806  1.0000
  O   O10       1.0  0.5313955  0.18683253  0.09590194  1.0000
  O   O11       1.0  0.03139552000000004  0.6868325099999999  0.40409812  1.0000
  O   O12       1.0  0.31316748000000005  0.9686044699999998  0.59590188  1.0000
  O   O13       1.0  0.1868325300000001  0.5313955  0.09590194  1.0000
  O   O14       1.0  0.4686045  0.8131674699999999  0.9040980599999999  1.0000
  O   O15       1.0  0.96860447  0.3131674800000001  0.59590188  1.0000
  O   O16       1.0  0.68683251  0.03139552  0.40409812  1.0000
  O   O17       1.0  0.6381076199999999  0.63810762  0.90284438  1.0000
  O   O18       1.0  0.36189238  0.36189238  0.09715561  1.0000
  O   O19       1.0  0.8618922299999999  0.86189223  0.40284432  1.0000
  O   O20       1.0  0.13810776  0.13810776  0.59715569  1.0000
  O   O21       1.0  0.3363414800000001  0.51128107  0.9248289900000001  1.0000
  O   O22       1.0  0.48871893999999994  0.66365853  0.07517100000000002  1.0000
  O   O23       1.0  0.98871886  0.16365839  0.4248291599999999  1.0000
  O   O24       1.0  0.8363415999999999  0.01128114  0.5751708499999999  1.0000
  O   O25       1.0  0.6636585199999999  0.4887189399999998  0.07517100000000002  1.0000
  O   O26       1.0  0.5112810700000001  0.33634148  0.9248289899999999  1.0000
  O   O27       1.0  0.011281139999999926  0.8363416  0.57517085  1.0000
  O   O28       1.0  0.16365839000000004  0.9887188599999999  0.42482916  1.0000
  O   O29       1.0  0.012008000000000008  0.51200789  0.7499998699999999  1.0000
  O   O30       1.0  0.48799211000000003  0.9879919999999999  0.25000013  1.0000
  O   O31       1.0  0.9879920000000001  0.48799212  0.25000013  1.0000
  O   O32       1.0  0.51200789  0.012008  0.74999987  1.0000
  O   O33       1.0  0.82648179  0.14363054  0.7672569999999999  1.0000
  O   O34       1.0  0.85636946  0.1735182199999999  0.23274301  1.0000
  O   O35       1.0  0.3563695299999998  0.67351877  0.26725727  1.0000
  O   O36       1.0  0.32648124  0.6436304699999998  0.73274272  1.0000
  O   O37       1.0  0.17351822  0.85636946  0.23274301  1.0000
  O   O38       1.0  0.14363054999999997  0.8264817799999999  0.767257  1.0000
  O   O39       1.0  0.64363047  0.32648124  0.73274272  1.0000
  O   O40       1.0  0.67351877  0.35636953  0.26725727  1.0000
  O   O41       1.0  0.14590137  0.31931881  0.73329749  1.0000
  O   O42       1.0  0.68068119  0.85409863  0.26670251  1.0000
  O   O43       1.0  0.18068165  0.35409927  0.23329743  1.0000
  O   O44       1.0  0.64590075  0.8193183599999999  0.7667025699999999  1.0000
  O   O45       1.0  0.85409863  0.68068119  0.26670251  1.0000
  O   O46       1.0  0.31931881  0.14590137  0.7332974899999998  1.0000
  O   O47       1.0  0.8193183599999999  0.64590074  0.7667025699999999  1.0000
  O   O48       1.0  0.35409926  0.18068165  0.23329743  1.0000
  O   O49       1.0  0.97189617  0.80396771  0.91708972  1.0000
  O   O50       1.0  0.19603229000000003  0.02810383  0.08291029  1.0000
  O   O51       1.0  0.69603232  0.52810378  0.41708993  1.0000
  O   O52       1.0  0.47189622  0.30396767  0.58291007  1.0000
  O   O53       1.0  0.028103830000000003  0.19603229  0.08291029  1.0000
  O   O54       1.0  0.80396771  0.9718961699999998  0.9170897199999999  1.0000
  O   O55       1.0  0.3039676700000001  0.47189621  0.58291007  1.0000
  O   O56       1.0  0.52810377  0.69603232  0.41708993  1.0000
  O   O57       1.0  0.4805474399999999  0.48054742999999994  0.74913916  1.0000
  O   O58       1.0  0.5194525700000001  0.5194525699999999  0.25086083  1.0000
  O   O59       1.0  0.01945232  0.01945232  0.24913937  1.0000
  O   O60       1.0  0.98054768  0.9805476799999998  0.7508606399999999  1.0000
  Ti  Ti1       1.0  0.68359405  0.31640595  1.0  1.0000
  Ti  Ti2       1.0  0.18359415000000004  0.8164058399999999  0.5  1.0000
  Ti  Ti3       1.0  0.31640594999999994  0.6835940500000001  0.9999999999999999  1.0000
  Ti  Ti4       1.0  0.81640585  0.1835941600000001  0.5  1.0000
  Ti  Ti5       1.0  0.5  0.5  0.0  1.0000
  Ti  Ti6       1.0  1.0000000000000002  1.0  0.50000001  1.0000
  Ti  Ti7       1.0  0.9986999899999999  0.64788432  0.83629539  1.0000
  Ti  Ti8       1.0  0.35211568  0.00130001  0.16370461  1.0000
  Ti  Ti9       1.0  0.8521158200000001  0.50130009  0.33629546  1.0000
  Ti  Ti10      1.0  0.49869990999999997  0.14788418  0.66370455  1.0000
  Ti  Ti11      1.0  0.0013000099999999958  0.35211568  0.16370461  1.0000
  Ti  Ti12      1.0  0.6478843199999998  0.9986999899999998  0.8362953899999999  1.0000
  Ti  Ti13      1.0  0.1478841899999999  0.49869991  0.6637045399999999  1.0000
  Ti  Ti14      1.0  0.50130009  0.85211582  0.33629545  1.0000
  Ti  Ti15      1.0  0.6463158300000001  0.46269484999999994  0.81864456  1.0000
  Ti  Ti16      1.0  0.53730515  0.35368417  0.18135543  1.0000
  Ti  Ti17      1.0  0.03730558000000001  0.8536842699999999  0.3186444399999999  1.0000
  Ti  Ti18      1.0  0.1463157300000001  0.96269442  0.68135556  1.0000
  Ti  Ti19      1.0  0.35368417  0.53730515  0.18135543  1.0000
  Ti  Ti20      1.0  0.46269485  0.64631583  0.8186445599999999  1.0000
  Ti  Ti21      1.0  0.96269442  0.14631573  0.68135556  1.0000
  Ti  Ti22      1.0  0.85368427  0.0373055799999999  0.31864444  1.0000
  Ti  Ti23      1.0  0.83453964  0.83453963  0.84626816  1.0000
  Ti  Ti24      1.0  0.16546036999999997  0.16546037  0.15373184  1.0000
  Ti  Ti25      1.0  0.6654604899999998  0.6654604899999998  0.3462680799999999  1.0000
  Ti  Ti26      1.0  0.33453951  0.3345395  0.65373191  1.0000
