data_image0
_chemical_formula_structural       O24Mn6Ba8Ce2
_chemical_formula_sum              "O24 Mn6 Ba8 Ce2"
_cell_length_a       10.198242194027404
_cell_length_b       5.888444679232852
_cell_length_c       10.296947326835822
_cell_angle_alpha    89.9999989461519
_cell_angle_beta     109.28462576089406
_cell_angle_gamma    90.00000022775735

_space_group_name_H-M_alt    "P 1"
_space_group_IT_number       1

loop_
  _space_group_symop_operation_xyz
  'x, y, z'

loop_
  _atom_site_type_symbol
  _atom_site_label
  _atom_site_symmetry_multiplicity
  _atom_site_fract_x
  _atom_site_fract_y
  _atom_site_fract_z
  _atom_site_occupancy
  O   O1        1.0  0.8954113600000001  0.5000000000000001  0.62565697  1.0000
  O   O2        1.0  0.39541136  0.0  0.62565697  1.0000
  O   O3        1.0  0.10458864000000012  0.5000000000000001  0.37434303000000013  1.0000
  O   O4        1.0  0.6045886400000001  1.0  0.3743430300000001  1.0000
  O   O5        1.0  0.6151336499999999  0.7803092500000001  0.62570308  1.0000
  O   O6        1.0  0.1151336500000001  0.7196907500000002  0.62570308  1.0000
  O   O7        1.0  0.11513364999999998  0.28030925  0.62570308  1.0000
  O   O8        1.0  0.6151336500000001  0.21969075  0.6257030800000001  1.0000
  O   O9        1.0  0.38486635  0.7803092500000002  0.37429692  1.0000
  O   O10       1.0  0.8848663500000001  0.7196907500000003  0.37429692  1.0000
  O   O11       1.0  0.8848663499999999  0.2803092500000002  0.37429692  1.0000
  O   O12       1.0  0.38486635  0.21969075  0.37429692  1.0000
  O   O13       1.0  0.043612590000000104  0.7344369200000002  0.8651916  1.0000
  O   O14       1.0  0.04361259000000009  0.26556308  0.8651916  1.0000
  O   O15       1.0  0.5436125900000002  0.76556308  0.8651916000000001  1.0000
  O   O16       1.0  0.5436125900000001  0.23443692000000002  0.8651916000000001  1.0000
  O   O17       1.0  0.9563874100000002  0.7344369200000004  0.1348084  1.0000
  O   O18       1.0  0.9563874099999999  0.2655630800000001  0.1348084  1.0000
  O   O19       1.0  0.45638741000000005  0.7655630800000003  0.1348084  1.0000
  O   O20       1.0  0.45638741  0.23443692000000002  0.1348084  1.0000
  O   O21       1.0  0.7779829300000001  1.0000000000000002  0.8652188000000002  1.0000
  O   O22       1.0  0.27798293000000013  0.5000000000000001  0.8652188000000002  1.0000
  O   O23       1.0  0.22201706999999998  0.0  0.1347812  1.0000
  O   O24       1.0  0.7220170699999999  0.5000000000000002  0.1347812  1.0000
  Mn  Mn1       1.0  8.938333022516662e-17  0.5  0.5  1.0000
  Mn  Mn2       1.0  0.5000000000000001  0.0  0.5  1.0000
  Mn  Mn3       1.0  0.0867763000000001  0.5  0.76028643  1.0000
  Mn  Mn4       1.0  0.5867763000000001  1.0  0.76028643  1.0000
  Mn  Mn5       1.0  0.9132237000000002  0.5  0.23971357000000001  1.0000
  Mn  Mn6       1.0  0.4132237  0.0  0.23971357000000001  1.0000
  Ba  Ba1       1.0  0.8691981400000001  9.999999985816247e-17  0.6075414200000001  1.0000
  Ba  Ba2       1.0  0.3691981400000001  0.5000000000000001  0.60754142  1.0000
  Ba  Ba3       1.0  0.6308018599999999  0.5000000000000001  0.3924585800000001  1.0000
  Ba  Ba4       1.0  0.1308018600000001  1.0  0.39245858  1.0000
  Ba  Ba5       1.0  0.7812815  0.5  0.8438506500000001  1.0000
  Ba  Ba6       1.0  0.2812815  1.0  0.8438506500000001  1.0000
  Ba  Ba7       1.0  0.2187185  0.5000000000000001  0.15614935  1.0000
  Ba  Ba8       1.0  0.7187185  9.999999985816247e-17  0.15614935  1.0000
  Ce  Ce1       1.0  0.0  0.0  0.0  1.0000
  Ce  Ce2       1.0  0.5000000000000001  0.5000000000000001  0.0  1.0000
