data_image0
_chemical_formula_structural       MgO
_chemical_formula_sum              "Mg1 O1"
_cell_length_a       3.0075963335146496
_cell_length_b       3.0075963193725133
_cell_length_c       3.007595397305298
_cell_angle_alpha    59.999995784714585
_cell_angle_beta     59.999996173578346
_cell_angle_gamma    59.99999696686256

_space_group_name_H-M_alt    "P 1"
_space_group_IT_number       1

loop_
  _space_group_symop_operation_xyz
  'x, y, z'

loop_
  _atom_site_type_symbol
  _atom_site_label
  _atom_site_symmetry_multiplicity
  _atom_site_fract_x
  _atom_site_fract_y
  _atom_site_fract_z
  _atom_site_occupancy
  Mg  Mg1       1.0  0.0  1.0000000000000002  1.0000000000000002  1.0000
  O   O1        1.0  0.5000000000000002  0.5  0.5000000000000001  1.0000
