data_image0
_chemical_formula_structural       In8O20Ti4
_chemical_formula_sum              "In8 O20 Ti4"
_cell_length_a       7.371613282000271
_cell_length_b       3.554084056
_cell_length_c       15.152959912000398
_cell_angle_alpha    89.99999854609538
_cell_angle_beta     89.99997145959331
_cell_angle_gamma    89.9999998350495

_space_group_name_H-M_alt    "P 1"
_space_group_IT_number       1

loop_
  _space_group_symop_operation_xyz
  'x, y, z'

loop_
  _atom_site_type_symbol
  _atom_site_label
  _atom_site_symmetry_multiplicity
  _atom_site_fract_x
  _atom_site_fract_y
  _atom_site_fract_z
  _atom_site_occupancy
  In  In1       1.0  0.59919798  0.25  0.4164351999999999  1.0000
  In  In2       1.0  0.09919788  0.25  0.08356486  1.0000
  In  In3       1.0  0.40080209  0.7499999999999999  0.58356443  1.0000
  In  In4       1.0  0.9008021299999999  0.7499999900000002  0.91643547  1.0000
  In  In5       1.0  0.82545984  0.75  0.2598789  1.0000
  In  In6       1.0  0.32545988  0.7500000100000002  0.24012122  1.0000
  In  In7       1.0  0.17453998  0.25000000000000017  0.74012119  1.0000
  In  In8       1.0  0.67453998  0.24999999000000003  0.75987871  1.0000
  O   O1        1.0  0.7403048499999999  0.24999998  0.18010903  1.0000
  O   O2        1.0  0.24030455  0.25000002  0.31989117  1.0000
  O   O3        1.0  0.25969533  0.75000002  0.81989107  1.0000
  O   O4        1.0  0.7596956400000001  0.7499999800000002  0.6801087400000001  1.0000
  O   O5        1.0  0.84607561  0.2499999900000001  0.00429839  1.0000
  O   O6        1.0  0.34607544999999995  0.25  0.4957015599999999  1.0000
  O   O7        1.0  0.15392448  0.75  0.9957015899999999  1.0000
  O   O8        1.0  0.65392469  0.75  0.50429845  1.0000
  O   O9        1.0  0.87058828  0.25000002  0.35095228  1.0000
  O   O10       1.0  0.3705881999999999  0.24999998  0.14904776  1.0000
  O   O11       1.0  0.12941174  0.74999998  0.6490477399999999  1.0000
  O   O12       1.0  0.6294118100000001  0.7500000100000002  0.85095222  1.0000
  O   O13       1.0  0.5600390199999998  0.75  0.32447638000000006  1.0000
  O   O14       1.0  0.06003904  0.7500000100000002  0.17552365  1.0000
  O   O15       1.0  0.43996083  0.25  0.6755236099999999  1.0000
  O   O16       1.0  0.9399608000000002  0.24999999000000003  0.82447636  1.0000
  O   O17       1.0  0.57183387  0.74999997  0.04539863  1.0000
  O   O18       1.0  0.07183378999999998  0.7500000300000003  0.45460143  1.0000
  O   O19       1.0  0.4281660299999999  0.2500000199999999  0.95460127  1.0000
  O   O20       1.0  0.9281661700000001  0.24999998  0.5453987  1.0000
  Ti  Ti1       1.0  0.6069479499999999  0.2499999500000001  0.07725053  1.0000
  Ti  Ti2       1.0  0.10694799999999999  0.25000005  0.4227493999999999  1.0000
  Ti  Ti3       1.0  0.39305207  0.7500000400000002  0.9227493899999999  1.0000
  Ti  Ti4       1.0  0.89305201  0.7499999600000001  0.57725069  1.0000
