data_image0
_chemical_formula_structural       Ni2O2
_chemical_formula_sum              "Ni2 O2"
_cell_length_a       5.134470438674514
_cell_length_b       5.134416384249741
_cell_length_c       5.134373129573049
_cell_angle_alpha    33.629841452651995
_cell_angle_beta     33.63002932241874
_cell_angle_gamma    33.63019405380421

_space_group_name_H-M_alt    "P 1"
_space_group_IT_number       1

loop_
  _space_group_symop_operation_xyz
  'x, y, z'

loop_
  _atom_site_type_symbol
  _atom_site_label
  _atom_site_symmetry_multiplicity
  _atom_site_fract_x
  _atom_site_fract_y
  _atom_site_fract_z
  _atom_site_occupancy
  Ni  Ni1       1.0  1.0  0.0  -9.999999999999999e-17  1.0000
  Ni  Ni2       1.0  0.5000000000000001  0.5  0.5  1.0000
  O   O1        1.0  0.7500000100000003  0.7500000099999998  0.74999998  1.0000
  O   O2        1.0  0.24999999  0.24999998999999984  0.25000002  1.0000
