data_image0
_chemical_formula_structural       O4Sr2Ti
_chemical_formula_sum              "O4 Sr2 Ti1"
_cell_length_a       3.938033721588681
_cell_length_b       3.938033773588634
_cell_length_c       6.929044638221455
_cell_angle_alpha    106.50907590956791
_cell_angle_beta     106.50907578308836
_cell_angle_gamma    90.0003813070747

_space_group_name_H-M_alt    "P 1"
_space_group_IT_number       1

loop_
  _space_group_symop_operation_xyz
  'x, y, z'

loop_
  _atom_site_type_symbol
  _atom_site_label
  _atom_site_symmetry_multiplicity
  _atom_site_fract_x
  _atom_site_fract_y
  _atom_site_fract_z
  _atom_site_occupancy
  O   O1        1.0  0.0  0.4999999999999999  0.0  1.0000
  O   O2        1.0  0.5  0.9999999999999999  0.0  1.0000
  O   O3        1.0  0.1586447  0.1586447  0.31729251  1.0000
  O   O4        1.0  0.8413553000000001  0.84135531  0.6827074899999999  1.0000
  Sr  Sr1       1.0  0.35443017000000004  0.35443015999999994  0.70885625  1.0000
  Sr  Sr2       1.0  0.64556983  0.64556984  0.29114375000000003  1.0000
  Ti  Ti1       1.0  0.0  0.9999999999999999  0.0  1.0000
