data_image0
_chemical_formula_structural       Sr4O12Ce4
_chemical_formula_sum              "Sr4 O12 Ce4"
_cell_length_a       8.698144207003056
_cell_length_b       6.067842713000241
_cell_length_c       6.234103416001948
_cell_angle_alpha    90.0000024491492
_cell_angle_beta     90.00009052036724
_cell_angle_gamma    89.9999677760772

_space_group_name_H-M_alt    "P 1"
_space_group_IT_number       1

loop_
  _space_group_symop_operation_xyz
  'x, y, z'

loop_
  _atom_site_type_symbol
  _atom_site_label
  _atom_site_symmetry_multiplicity
  _atom_site_fract_x
  _atom_site_fract_y
  _atom_site_fract_z
  _atom_site_occupancy
  Sr  Sr1       1.0  0.2499995199999999  0.013598360000000002  0.9535563500000002  1.0000
  Sr  Sr2       1.0  0.24999938  0.48640171000000004  0.4535558499999999  1.0000
  Sr  Sr3       1.0  0.7500005699999999  0.9864022099999998  0.046444370000000006  1.0000
  Sr  Sr4       1.0  0.7500004899999998  0.51359786  0.5464439899999999  1.0000
  O   O1        1.0  0.25000322  0.6102619800000001  0.047738970000000006  1.0000
  O   O2        1.0  0.24999938  0.88973802  0.54773914  1.0000
  O   O3        1.0  0.7499967499999999  0.3897385600000002  0.95226102  1.0000
  O   O4        1.0  0.7500006199999999  0.11026144  0.45226124999999995  1.0000
  O   O5        1.0  0.9402827299999997  0.70090929  0.29837206  1.0000
  O   O6        1.0  0.5597166899999999  0.79909074  0.79837227  1.0000
  O   O7        1.0  0.05971770999999999  0.2990910099999999  0.7016279500000001  1.0000
  O   O8        1.0  0.5597165999999999  0.7009048300000003  0.2983678  1.0000
  O   O9        1.0  0.94028255  0.7990948300000003  0.7983679399999999  1.0000
  O   O10       1.0  0.44028292  0.20090911000000003  0.20162765  1.0000
  O   O11       1.0  0.44028305  0.29909522  0.70163223  1.0000
  O   O12       1.0  0.05971763  0.20090531  0.20163205  1.0000
  Ce  Ce1       1.0  0.9999994099999999  0.49999896000000005  1.22e-06  1.0000
  Ce  Ce2       1.0  0.50000092  4.8e-07  0.4999999500000001  1.0000
  Ce  Ce3       1.0  0.5000008  0.4999996900000001  0.99999964  1.0000
  Ce  Ce4       1.0  0.9999990499999998  4.1000000000000004e-07  0.49999831000000006  1.0000
