data_image0
_chemical_formula_structural       Sr6Co4O12
_chemical_formula_sum              "Sr6 Co4 O12"
_cell_length_a       6.635850698462864
_cell_length_b       6.5910161827398
_cell_length_c       6.574185667329109
_cell_angle_alpha    93.62908804736236
_cell_angle_beta     93.40651873961662
_cell_angle_gamma    93.2906713023376

_space_group_name_H-M_alt    "P 1"
_space_group_IT_number       1

loop_
  _space_group_symop_operation_xyz
  'x, y, z'

loop_
  _atom_site_type_symbol
  _atom_site_label
  _atom_site_symmetry_multiplicity
  _atom_site_fract_x
  _atom_site_fract_y
  _atom_site_fract_z
  _atom_site_occupancy
  Sr  Sr1       1.0  0.3822278300000001  0.74527496  0.11817863000000002  1.0000
  Sr  Sr2       1.0  0.11653022  0.38284488  0.75314609  1.0000
  Sr  Sr3       1.0  0.8834639899999999  0.6171541399999999  0.24686291000000002  1.0000
  Sr  Sr4       1.0  0.61776643  0.25472935  0.8818209  1.0000
  Sr  Sr5       1.0  0.7515376599999999  0.12088970000000002  0.3793698999999999  1.0000
  Sr  Sr6       1.0  0.2484548400000001  0.8791152  0.62063473  1.0000
  Co  Co1       1.0  0.5000086  0.49999322  0.49999846  1.0000
  Co  Co2       1.0  4.280000000013274e-06  8.310000000014932e-06  0.9999903600000001  1.0000
  Co  Co3       1.0  0.7480757499999999  0.7566207899999999  0.74537769  1.0000
  Co  Co4       1.0  0.25189888  0.24339043  0.25465549  1.0000
  O   O1        1.0  0.46200166  0.5896891499999999  0.7819224700000001  1.0000
  O   O2        1.0  0.9629421599999999  0.28120965  0.0910825600000001  1.0000
  O   O3        1.0  0.53799719  0.41030773  0.21807914000000003  1.0000
  O   O4        1.0  0.037046720000000005  0.7187998099999999  0.9089017600000001  1.0000
  O   O5        1.0  0.7809311799999998  0.47220376  0.59673224  1.0000
  O   O6        1.0  0.28136407  0.09769443000000001  0.9746401499999999  1.0000
  O   O7        1.0  0.2190740100000001  0.5277811099999999  0.4032496  1.0000
  O   O8        1.0  0.71863966  0.9023005100000001  0.025350470000000104  1.0000
  O   O9        1.0  0.59368105  0.78335542  0.47212671000000006  1.0000
  O   O10       1.0  0.0914550400000001  0.9685889700000001  0.28361505  1.0000
  O   O11       1.0  0.40633671  0.21663529000000004  0.52789348  1.0000
  O   O12       1.0  0.9085646399999999  0.031434680000000007  0.7163737999999998  1.0000
