data_image0
_chemical_formula_structural       Ba6O12Mn6
_chemical_formula_sum              "Ba6 O12 Mn6"
_cell_length_a       6.024354850000208
_cell_length_b       6.024352308103152
_cell_length_c       13.938993794000096
_cell_angle_alpha    89.99998660171596
_cell_angle_beta     90.00000616842654
_cell_angle_gamma    120.00004344797088

_space_group_name_H-M_alt    "P 1"
_space_group_IT_number       1

loop_
  _space_group_symop_operation_xyz
  'x, y, z'

loop_
  _atom_site_type_symbol
  _atom_site_label
  _atom_site_symmetry_multiplicity
  _atom_site_fract_x
  _atom_site_fract_y
  _atom_site_fract_z
  _atom_site_occupancy
  Ba  Ba1       1.0  0.3461846600000001  2.2000000000000006e-07  0.6666666899999999  1.0000
  Ba  Ba2       1.0  4.0299999999940085e-06  0.34619067  0.8333337699999999  1.0000
  Ba  Ba3       1.0  0.6538189300000002  0.6538227400000002  4.1000000000000004e-07  1.0000
  Ba  Ba4       1.0  0.34618325000000016  4e-08  0.16666666  1.0000
  Ba  Ba5       1.0  0.9999961400000001  0.3461772900000001  0.33333293  1.0000
  Ba  Ba6       1.0  0.65381323  0.6538095599999999  0.4999995300000001  1.0000
  O   O1        1.0  0.68737645  0.11565918  0.5218238599999999  1.0000
  O   O2        1.0  0.31261934  0.4282852100000001  0.6448450499999999  1.0000
  O   O3        1.0  0.8843342300000001  0.5717148700000001  0.6884883099999999  1.0000
  O   O4        1.0  0.57171729  0.88434072  0.81150947  1.0000
  O   O5        1.0  0.42829007000000013  0.31262714  0.8551575199999999  1.0000
  O   O6        1.0  0.11566767000000006  0.68738717  0.97817839  1.0000
  O   O7        1.0  0.68738358  0.11567111  0.021822  1.0000
  O   O8        1.0  0.3126204300000001  0.4282853400000001  0.14484250000000004  1.0000
  O   O9        1.0  0.88433485  0.57171432  0.18849083  1.0000
  O   O10       1.0  0.57171205  0.88432845  0.31151138  1.0000
  O   O11       1.0  0.42828037  0.31261269  0.3551549299999999  1.0000
  O   O12       1.0  0.11566255000000002  0.68737282  0.4781757599999999  1.0000
  Mn  Mn1       1.0  0.9999986400000004  0.4044896900000001  0.58333432  1.0000
  Mn  Mn2       1.0  0.5955093400000001  0.5955107100000001  0.7499990200000001  1.0000
  Mn  Mn3       1.0  0.40449779  7.05e-06  0.91666758  1.0000
  Mn  Mn4       1.0  1.4299999999859844e-06  0.40449829  0.08333243  1.0000
  Mn  Mn5       1.0  0.59550311  0.5955017200000001  0.25000091  1.0000
  Mn  Mn6       1.0  0.4044905599999999  0.9999930200000001  0.41666573  1.0000
