data_image0
_chemical_formula_structural       Al16Ba8O32
_chemical_formula_sum              "Al16 Ba8 O32"
_cell_length_a       10.592170336000324
_cell_length_b       10.592171310723739
_cell_length_c       8.868907415000045
_cell_angle_alpha    90.00000004858303
_cell_angle_beta     90.00000214428094
_cell_angle_gamma    120.00001931454871

_space_group_name_H-M_alt    "P 1"
_space_group_IT_number       1

loop_
  _space_group_symop_operation_xyz
  'x, y, z'

loop_
  _atom_site_type_symbol
  _atom_site_label
  _atom_site_symmetry_multiplicity
  _atom_site_fract_x
  _atom_site_fract_y
  _atom_site_fract_z
  _atom_site_occupancy
  Al  Al1       1.0  0.82355899  0.15434512  0.56444261  1.0000
  Al  Al2       1.0  0.33078577000000003  0.17644134  0.5644427  1.0000
  Al  Al3       1.0  0.84565528  0.6692140300000001  0.56444247  1.0000
  Al  Al4       1.0  0.17644103000000003  0.8456549000000002  0.06444263  1.0000
  Al  Al5       1.0  0.6692142  0.82355865  0.06444269  1.0000
  Al  Al6       1.0  0.15434473  0.3307859600000001  0.06444246  1.0000
  Al  Al7       1.0  0.82509551  0.15317456  0.95072155  1.0000
  Al  Al8       1.0  0.32807844  0.17490415  0.9507210499999998  1.0000
  Al  Al9       1.0  0.84682525  0.67192079  0.9507209599999998  1.0000
  Al  Al10      1.0  0.17490449999999994  0.8468254500000001  0.4507215199999999  1.0000
  Al  Al11      1.0  0.6719215700000001  0.8250958700000001  0.4507210799999999  1.0000
  Al  Al12      1.0  0.15317477  0.3280792200000001  0.45072094  1.0000
  Al  Al13      1.0  0.66666639  0.33333332000000004  0.44725151  1.0000
  Al  Al14      1.0  0.3333335800000001  0.66666665  0.9472514999999998  1.0000
  Al  Al15      1.0  0.66666617  0.3333330900000001  0.04597071  1.0000
  Al  Al16      1.0  0.33333384000000005  0.6666669100000002  0.54597071  1.0000
  Ba  Ba1       1.0  0.9999996900000001  0.9999999600000001  0.7480653999999999  1.0000
  Ba  Ba2       1.0  3.1000000000000005e-07  4e-08  0.24806538999999997  1.0000
  Ba  Ba3       1.0  0.49929129000000005  0.5078249400000001  0.7576482  1.0000
  Ba  Ba4       1.0  0.008534080000000001  0.50070865  0.75764793  1.0000
  Ba  Ba5       1.0  0.49217500999999997  0.9914662999999999  0.7576479799999999  1.0000
  Ba  Ba6       1.0  0.5007087199999999  0.49217506  0.25764821  1.0000
  Ba  Ba7       1.0  0.9914658900000001  0.4992913199999999  0.25764794  1.0000
  Ba  Ba8       1.0  0.5078249999999999  0.00853367  0.25764796  1.0000
  O   O1        1.0  0.18132485  0.17880119  0.47965447999999994  1.0000
  O   O2        1.0  0.9974765800000001  0.8186757300000002  0.4796558799999999  1.0000
  O   O3        1.0  0.8211993699999999  0.0025238900000000004  0.47965592999999995  1.0000
  O   O4        1.0  0.81867512  0.82119879  0.9796545199999999  1.0000
  O   O5        1.0  0.0025233899999999978  0.1813242  0.97965595  1.0000
  O   O6        1.0  0.17880065999999994  0.99747611  0.9796558899999998  1.0000
  O   O7        1.0  0.68830004  0.6875653700000001  0.54824358  1.0000
  O   O8        1.0  0.9992654800000002  0.3117003400000001  0.54824316  1.0000
  O   O9        1.0  0.31243512  0.0007351  0.5482431499999999  1.0000
  O   O10       1.0  0.31169997  0.3124346100000001  0.04824359  1.0000
  O   O11       1.0  0.0007345300000001616  0.6882996900000002  0.04824321  1.0000
  O   O12       1.0  0.6875648400000001  0.9992648800000002  0.04824307  1.0000
  O   O13       1.0  0.31400026  0.49722908000000005  0.4888316899999998  1.0000
  O   O14       1.0  0.18322911000000006  0.6860001100000003  0.48883245  1.0000
  O   O15       1.0  0.50277125  0.81677109  0.48883037999999995  1.0000
  O   O16       1.0  0.6859997700000001  0.5027709199999999  0.9888316599999999  1.0000
  O   O17       1.0  0.8167709300000001  0.31399991  0.98883255  1.0000
  O   O18       1.0  0.4972287800000001  0.18322893  0.9888303100000001  1.0000
  O   O19       1.0  0.6798063  0.18044859000000002  0.5017897299999999  1.0000
  O   O20       1.0  0.5006425600000001  0.3201942999999999  0.50179147  1.0000
  O   O21       1.0  0.81955163  0.49935794  0.50178895  1.0000
  O   O22       1.0  0.3201936899999999  0.81955138  0.00178978  1.0000
  O   O23       1.0  0.49935743000000005  0.6798056700000001  0.00179145  1.0000
  O   O24       1.0  0.18044834000000004  0.50064201  0.00178887  1.0000
  O   O25       1.0  0.7880317199999999  0.10925705000000001  0.75758564  1.0000
  O   O26       1.0  0.3212229200000001  0.2119681  0.75758549  1.0000
  O   O27       1.0  0.89074368  0.6787746  0.75758535  1.0000
  O   O28       1.0  0.21196834000000003  0.89074307  0.25758564  1.0000
  O   O29       1.0  0.6787770300000001  0.7880319400000001  0.2575855  1.0000
  O   O30       1.0  0.10925637  0.32122548  0.25758534  1.0000
  O   O31       1.0  0.6666649800000001  0.3333325500000001  0.24655964  1.0000
  O   O32       1.0  0.33333497  0.6666674600000001  0.74655963  1.0000
