data_image0
_chemical_formula_structural       Nb4Ba5O15
_chemical_formula_sum              "Nb4 Ba5 O15"
_cell_length_a       5.905458961341037
_cell_length_b       5.905459048000005
_cell_length_c       12.047920379000004
_cell_angle_alpha    89.99999976468256
_cell_angle_beta     89.99999786638573
_cell_angle_gamma    120.00000512328623

_space_group_name_H-M_alt    "P 1"
_space_group_IT_number       1

loop_
  _space_group_symop_operation_xyz
  'x, y, z'

loop_
  _atom_site_type_symbol
  _atom_site_label
  _atom_site_symmetry_multiplicity
  _atom_site_fract_x
  _atom_site_fract_y
  _atom_site_fract_z
  _atom_site_occupancy
  Nb  Nb1       1.0  1.0999999999999999e-07  8e-08  0.6853238500000002  1.0000
  Nb  Nb2       1.0  0.9999999399999998  0.99999999  0.31467615  1.0000
  Nb  Nb3       1.0  0.3333332999999999  0.6666666499999999  0.10395237  1.0000
  Nb  Nb4       1.0  0.6666666799999998  0.3333333399999999  0.8960476300000001  1.0000
  Ba  Ba1       1.0  0.9999999799999998  0.9999999799999999  0.9999999900000001  1.0000
  Ba  Ba2       1.0  0.3333334299999999  0.66666673  0.7884956500000001  1.0000
  Ba  Ba3       1.0  0.6666666  0.3333332999999999  0.21150436  1.0000
  Ba  Ba4       1.0  0.3333333099999999  0.6666666899999999  0.4320530000000001  1.0000
  Ba  Ba5       1.0  0.6666667199999999  0.33333338  0.5679470100000001  1.0000
  O   O1        1.0  0.4999999199999999  0.9999998999999998  0.9999999700000002  1.0000
  O   O2        1.0  0.99999993  0.49999990000000005  1e-08  1.0000
  O   O3        1.0  0.4999999899999999  0.49999996  1e-08  1.0000
  O   O4        1.0  0.1684411500000001  0.83155877  0.19147435000000002  1.0000
  O   O5        1.0  0.8315587999999998  0.1684412199999999  0.8085256200000001  1.0000
  O   O6        1.0  0.8315587799999998  0.6631175699999999  0.8085256300000002  1.0000
  O   O7        1.0  0.16844121  0.3368824  0.19147438000000003  1.0000
  O   O8        1.0  0.33688235  0.16844123  0.8085256700000001  1.0000
  O   O9        1.0  0.66311758  0.8315588  0.19147435000000002  1.0000
  O   O10       1.0  0.16425860000000003  0.8357416599999999  0.6129565200000001  1.0000
  O   O11       1.0  0.8357415299999997  0.1642584399999999  0.38704350000000004  1.0000
  O   O12       1.0  0.8357414999999999  0.6714830899999998  0.38704349  1.0000
  O   O13       1.0  0.16425855  0.3285169299999999  0.61295648  1.0000
  O   O14       1.0  0.3285168299999999  0.16425834  0.38704348000000016  1.0000
  O   O15       1.0  0.6714832099999999  0.8357416399999997  0.61295653  1.0000
