data_image0
_chemical_formula_structural       Ca2Fe2O4
_chemical_formula_sum              "Ca2 Fe2 O4"
_cell_length_a       5.524647476000643
_cell_length_b       5.524668835001014
_cell_length_c       3.4320130440009
_cell_angle_alpha    90.00003666225511
_cell_angle_beta     89.99993594162453
_cell_angle_gamma    89.99996387814362

_space_group_name_H-M_alt    "P 1"
_space_group_IT_number       1

loop_
  _space_group_symop_operation_xyz
  'x, y, z'

loop_
  _atom_site_type_symbol
  _atom_site_label
  _atom_site_symmetry_multiplicity
  _atom_site_fract_x
  _atom_site_fract_y
  _atom_site_fract_z
  _atom_site_occupancy
  Ca  Ca1       1.0  0.4999997999999999  2.8000000000000007e-07  0.41270247000000004  1.0000
  Ca  Ca2       1.0  3.2999999999999986e-07  0.4999995  0.5872965400000001  1.0000
  Fe  Fe1       1.0  0.50000076  0.49999955  0.99999975  1.0000
  Fe  Fe2       1.0  0.9999996199999998  2.1e-07  5.5e-07  1.0000
  O   O1        1.0  0.77912246  0.27912346  0.11700944000000002  1.0000
  O   O2        1.0  0.7208766399999998  0.7791227200000002  0.8829904500000001  1.0000
  O   O3        1.0  0.22087714  0.72087688  0.11700880000000001  1.0000
  O   O4        1.0  0.2791232599999999  0.22087739  0.8829931700000001  1.0000
