data_image0
_chemical_formula_structural       Sr8Ti4Mn4O24
_chemical_formula_sum              "Sr8 Ti4 Mn4 O24"
_cell_length_a       7.792943866895076
_cell_length_b       7.792943797926008
_cell_length_c       7.792944011593053
_cell_angle_alpha    90.00000991858428
_cell_angle_beta     90.0000095388736
_cell_angle_gamma    89.99998988435078

_space_group_name_H-M_alt    "P 1"
_space_group_IT_number       1

loop_
  _space_group_symop_operation_xyz
  'x, y, z'

loop_
  _atom_site_type_symbol
  _atom_site_label
  _atom_site_symmetry_multiplicity
  _atom_site_fract_x
  _atom_site_fract_y
  _atom_site_fract_z
  _atom_site_occupancy
  Sr  Sr1       1.0  0.7500000000000001  0.7500000099999999  0.75000001  1.0000
  Sr  Sr2       1.0  0.24999996999999993  0.2500000000000001  0.7499999900000001  1.0000
  Sr  Sr3       1.0  0.25000002000000004  0.7500000000000001  0.24999998  1.0000
  Sr  Sr4       1.0  0.24999999999999992  0.7500000000000001  0.75000001  1.0000
  Sr  Sr5       1.0  0.75000002  0.24999999999999997  0.25000001  1.0000
  Sr  Sr6       1.0  0.7500000400000001  0.24999999000000006  0.7499999800000001  1.0000
  Sr  Sr7       1.0  0.74999997  0.7500000000000001  0.24999998  1.0000
  Sr  Sr8       1.0  0.24999998  0.24999998999999998  0.25  1.0000
  Ti  Ti1       1.0  1.0000000000000008e-08  0.9999999900000002  0.4999999899999999  1.0000
  Ti  Ti2       1.0  0.0  0.50000001  0.0  1.0000
  Ti  Ti3       1.0  0.49999999999999994  1.0000000925457261e-16  1.0  1.0000
  Ti  Ti4       1.0  0.50000001  0.5000000000000001  0.4999999900000001  1.0000
  Mn  Mn1       1.0  -1.7655135170842517e-23  9.999998208149884e-17  1.0000000000000002  1.0000
  Mn  Mn2       1.0  0.0  0.5000000100000002  0.4999999900000001  1.0000
  Mn  Mn3       1.0  0.5000000099999999  0.0  0.5  1.0000
  Mn  Mn4       1.0  0.49999999999999994  0.49999998999999995  1.0  1.0000
  O   O1        1.0  1.0000000000000032e-08  2.0000000000000007e-08  0.7535384200000002  1.0000
  O   O2        1.0  0.9999999800000001  0.7535384200000002  2e-08  1.0000
  O   O3        1.0  0.24646158  1.0000000100000012e-08  1.0  1.0000
  O   O4        1.0  0.7535384200000002  0.9999999799999998  2.99999999e-08  1.0000
  O   O5        1.0  1.9999999900000022e-08  0.2464615800000002  0.9999999900000001  1.0000
  O   O6        1.0  0.9999999800000002  1.0000000000000002  0.24646159999999984  1.0000
  O   O7        1.0  0.7464616  2.0000000000000007e-08  0.49999998000000007  1.0000
  O   O8        1.0  1.999999999999999e-08  0.7464615900000001  0.4999999899999999  1.0000
  O   O9        1.0  0.2535384  0.99999999  0.50000001  1.0000
  O   O10       1.0  0.9999999799999999  0.25353841  0.50000001  1.0000
  O   O11       1.0  0.7464616  0.50000001  0.9999999900000003  1.0000
  O   O12       1.0  0.2535384  0.49999998999999995  1.9999999900000002e-08  1.0000
  O   O13       1.0  0.99999998  0.49999998000000007  0.7464615899999999  1.0000
  O   O14       1.0  9.999999999999995e-09  0.5000000100000002  0.25353841000000005  1.0000
  O   O15       1.0  0.50000002  0.7464616  0.9999999900000001  1.0000
  O   O16       1.0  0.49999998000000007  0.25353841  3e-08  1.0000
  O   O17       1.0  0.49999999000000006  0.9999999799999999  0.7464616  1.0000
  O   O18       1.0  0.50000001  6.793268445934869e-24  0.25353841000000005  1.0000
  O   O19       1.0  0.75353841  0.49999997999999996  0.5000000100000002  1.0000
  O   O20       1.0  0.49999998999999995  0.75353841  0.5000000100000003  1.0000
  O   O21       1.0  0.5000000099999999  0.50000001  0.7535384  1.0000
  O   O22       1.0  0.24646158  0.5000000100000002  0.49999999  1.0000
  O   O23       1.0  0.50000002  0.24646159000000006  0.4999999800000002  1.0000
  O   O24       1.0  0.49999999000000006  0.49999999999999994  0.24646160999999991  1.0000
