data_image0
_chemical_formula_structural       Fe4Ni2O8
_chemical_formula_sum              "Fe4 Ni2 O8"
_cell_length_a       5.922438515355322
_cell_length_b       5.959688349291484
_cell_length_c       5.95420811203735
_cell_angle_alpha    60.03018826642164
_cell_angle_beta     59.822609779631655
_cell_angle_gamma    60.031784329804935

_space_group_name_H-M_alt    "P 1"
_space_group_IT_number       1

loop_
  _space_group_symop_operation_xyz
  'x, y, z'

loop_
  _atom_site_type_symbol
  _atom_site_label
  _atom_site_symmetry_multiplicity
  _atom_site_fract_x
  _atom_site_fract_y
  _atom_site_fract_z
  _atom_site_occupancy
  Fe  Fe1       1.0  0.9949125599999997  0.9987731500000002  0.0031572899999999003  1.0000
  Fe  Fe2       1.0  0.25508743  0.2512269400000001  0.2468427499999999  1.0000
  Fe  Fe3       1.0  0.62500002  0.6250000300000003  0.6250000199999999  1.0000
  Fe  Fe4       1.0  0.62500002  0.62500003  0.12500001  1.0000
  Ni  Ni1       1.0  0.6249999999999999  0.1250000500000001  0.6250000100000002  1.0000
  Ni  Ni2       1.0  0.12500001999999985  0.6250000200000001  0.6250000199999999  1.0000
  O   O1        1.0  0.8648117000000002  0.3891950800000001  0.8729965500000001  1.0000
  O   O2        1.0  0.3923666499999997  0.8599729100000003  0.87382976  1.0000
  O   O3        1.0  0.8576333499999998  0.39002714000000016  0.3761703100000001  1.0000
  O   O4        1.0  0.3851883899999999  0.8608048600000002  0.37700352  1.0000
  O   O5        1.0  0.8651819500000001  0.8635814100000003  0.8761334999999999  1.0000
  O   O6        1.0  0.86518855  0.8635760299999998  0.39510293000000013  1.0000
  O   O7        1.0  0.38481152  0.38642400999999993  0.8548970599999999  1.0000
  O   O8        1.0  0.3848181299999999  0.38641863  0.37386657  1.0000
