data_image0
_chemical_formula_structural       Al4Mg2O8
_chemical_formula_sum              "Al4 Mg2 O8"
_cell_length_a       5.777432646940981
_cell_length_b       5.777432661790227
_cell_length_c       5.777432299044533
_cell_angle_alpha    59.9999521406965
_cell_angle_beta     59.99995265487712
_cell_angle_gamma    59.99995183299985

_space_group_name_H-M_alt    "P 1"
_space_group_IT_number       1

loop_
  _space_group_symop_operation_xyz
  'x, y, z'

loop_
  _atom_site_type_symbol
  _atom_site_label
  _atom_site_symmetry_multiplicity
  _atom_site_fract_x
  _atom_site_fract_y
  _atom_site_fract_z
  _atom_site_occupancy
  Al  Al1       1.0  0.6250000200000001  0.6250000200000001  0.12500002  1.0000
  Al  Al2       1.0  0.62500002  0.62500002  0.6250000199999998  1.0000
  Al  Al3       1.0  0.62500002  0.12500001  0.62500002  1.0000
  Al  Al4       1.0  0.12500002  0.6250000200000001  0.62500002  1.0000
  Mg  Mg1       1.0  5.6e-07  5.9e-07  4.9e-07  1.0000
  Mg  Mg2       1.0  0.2499994600000001  0.24999944999999998  0.24999954  1.0000
  O   O1        1.0  0.8613796199999999  0.86137963  0.86137964  1.0000
  O   O2        1.0  0.86137976  0.86137976  0.4158606499999997  1.0000
  O   O3        1.0  0.8613797500000002  0.41586067000000015  0.8613797600000002  1.0000
  O   O4        1.0  0.4158606099999998  0.8613797600000005  0.8613797699999999  1.0000
  O   O5        1.0  0.83413942  0.38862030000000014  0.3886202899999999  1.0000
  O   O6        1.0  0.38862030999999997  0.83413938  0.3886202999999998  1.0000
  O   O7        1.0  0.3886203099999999  0.38862030000000014  0.8341393799999999  1.0000
  O   O8        1.0  0.3886204100000001  0.38862040000000003  0.3886203999999999  1.0000
