data_image0
_chemical_formula_structural       O12Ba4Ce4
_chemical_formula_sum              "O12 Ba4 Ce4"
_cell_length_a       6.321911525000001
_cell_length_b       8.903649057
_cell_length_c       6.308047246999999
_cell_angle_alpha    90.00000005942435
_cell_angle_beta     89.99999943751342
_cell_angle_gamma    90.00000103167044

_space_group_name_H-M_alt    "P 1"
_space_group_IT_number       1

loop_
  _space_group_symop_operation_xyz
  'x, y, z'

loop_
  _atom_site_type_symbol
  _atom_site_label
  _atom_site_symmetry_multiplicity
  _atom_site_fract_x
  _atom_site_fract_y
  _atom_site_fract_z
  _atom_site_occupancy
  O   O1        1.0  0.4798337699999999  0.2500000799999999  0.07995598  1.0000
  O   O2        1.0  0.0201662  0.7499999699999998  0.57995576  1.0000
  O   O3        1.0  0.52016636  0.7499999399999999  0.9200442199999999  1.0000
  O   O4        1.0  0.9798337199999998  0.2500000499999999  0.42004426999999994  1.0000
  O   O5        1.0  0.27960887  0.04355561  0.7210820999999998  1.0000
  O   O6        1.0  0.22039043999999997  0.5435561  0.22108267  1.0000
  O   O7        1.0  0.22039042  0.9564439100000001  0.22108266  1.0000
  O   O8        1.0  0.72039104  0.54355611  0.27891803  1.0000
  O   O9        1.0  0.7203910699999997  0.9564439000000001  0.27891802  1.0000
  O   O10       1.0  0.7796094799999999  0.45644439999999986  0.7789173499999998  1.0000
  O   O11       1.0  0.7796095199999997  0.04355562  0.77891735  1.0000
  O   O12       1.0  0.2796088899999999  0.45644444  0.72108211  1.0000
  Ba  Ba1       1.0  0.025323609999999996  0.24999998999999998  0.9916568399999999  1.0000
  Ba  Ba2       1.0  0.47467647  0.7500000399999998  0.4916575  1.0000
  Ba  Ba3       1.0  0.97467662  0.7500000499999998  0.00834259  1.0000
  Ba  Ba4       1.0  0.5253233399999999  0.2499999899999999  0.5083432799999998  1.0000
  Ce  Ce1       1.0  5.2e-07  3.05e-06  0.50000194  1.0000
  Ce  Ce2       1.0  0.4999989799999999  0.4999977099999998  0.9999970299999998  1.0000
  Ce  Ce3       1.0  0.4999994999999998  2.15e-06  0.9999977099999999  1.0000
  Ce  Ce4       1.0  1.19e-06  0.4999968699999999  0.50000256  1.0000
