data_image0
_chemical_formula_structural       Mn8O20La4
_chemical_formula_sum              "Mn8 O20 La4"
_cell_length_a       7.799510038280005
_cell_length_b       8.808335295483468
_cell_length_c       5.812639867008656
_cell_angle_alpha    90.03123423574237
_cell_angle_beta     89.88712990656738
_cell_angle_gamma    90.05970293038756

_space_group_name_H-M_alt    "P 1"
_space_group_IT_number       1

loop_
  _space_group_symop_operation_xyz
  'x, y, z'

loop_
  _atom_site_type_symbol
  _atom_site_label
  _atom_site_symmetry_multiplicity
  _atom_site_fract_x
  _atom_site_fract_y
  _atom_site_fract_z
  _atom_site_occupancy
  Mn  Mn1       1.0  0.4999598000000002  9.231999999999998e-05  0.25887572  1.0000
  Mn  Mn2       1.0  0.0011121599999999998  0.4996644599999999  0.7384153300000001  1.0000
  Mn  Mn3       1.0  0.50000342  0.9999050200000001  0.74125374  1.0000
  Mn  Mn4       1.0  0.9981745600000002  0.50036733  0.2601202  1.0000
  Mn  Mn5       1.0  0.9098348700000001  0.14778296  0.50018396  1.0000
  Mn  Mn6       1.0  0.09037853  0.8523362599999998  0.4997805699999999  1.0000
  Mn  Mn7       1.0  0.4104518999999999  0.35258261  0.50068542  1.0000
  Mn  Mn8       1.0  0.5892312100000001  0.64844724  0.4995596600000001  1.0000
  O   O1        1.0  0.4999047200000001  0.50004504  0.28029694999999993  1.0000
  O   O2        1.0  0.00036164000000000026  0.00025943999999999994  0.71997791  1.0000
  O   O3        1.0  0.49929386000000003  0.5000669799999999  0.7199882299999999  1.0000
  O   O4        1.0  0.0003699100000000001  0.00011301999999999996  0.27945746999999993  1.0000
  O   O5        1.0  0.6532001399999999  0.04944544  0.9996857599999999  1.0000
  O   O6        1.0  0.34693096000000007  0.9502363499999998  0.00038281999999999997  1.0000
  O   O7        1.0  0.15120105  0.45100376999999997  0.00028742  1.0000
  O   O8        1.0  0.8482278600000002  0.54916106  0.99914644  1.0000
  O   O9        1.0  0.65219587  0.06048835999999999  0.49977408000000006  1.0000
  O   O10       1.0  0.3481795200000001  0.9383938099999999  0.50022329  1.0000
  O   O11       1.0  0.15160724  0.43838611999999993  0.49885605999999993  1.0000
  O   O12       1.0  0.8475824  0.56168118  0.50076576  1.0000
  O   O13       1.0  0.90642923  0.29421716  0.25305224  1.0000
  O   O14       1.0  0.09189837000000001  0.7059227499999999  0.25260666  1.0000
  O   O15       1.0  0.40761689000000006  0.20617120999999997  0.7480476899999999  1.0000
  O   O16       1.0  0.5933969400000001  0.7935673299999998  0.7483104799999999  1.0000
  O   O17       1.0  0.09427426000000001  0.7066723199999999  0.74756499  1.0000
  O   O18       1.0  0.9067966200000002  0.29320441999999997  0.74821128  1.0000
  O   O19       1.0  0.5933686000000001  0.7934985099999999  0.2511632  1.0000
  O   O20       1.0  0.4075261100000001  0.20608839  0.25282353999999996  1.0000
  La  La1       1.0  0.6472990700000001  0.32660928  0.9997531200000002  1.0000
  La  La2       1.0  0.3522452400000002  0.67317913  0.0006548599999999998  1.0000
  La  La3       1.0  0.14816204000000002  0.17351678  0.0004903299999999999  1.0000
  La  La4       1.0  0.85278527  0.8268943000000001  0.9996047800000001  1.0000
