data_image0
_chemical_formula_structural       Al4Mn2O8
_chemical_formula_sum              "Al4 Mn2 O8"
_cell_length_a       5.860351237257861
_cell_length_b       5.8603512598852765
_cell_length_c       5.860351289583763
_cell_angle_alpha    59.99999455575412
_cell_angle_beta     59.9999944200471
_cell_angle_gamma    59.999994867081895

_space_group_name_H-M_alt    "P 1"
_space_group_IT_number       1

loop_
  _space_group_symop_operation_xyz
  'x, y, z'

loop_
  _atom_site_type_symbol
  _atom_site_label
  _atom_site_symmetry_multiplicity
  _atom_site_fract_x
  _atom_site_fract_y
  _atom_site_fract_z
  _atom_site_occupancy
  Al  Al1       1.0  0.62500002  0.6250000199999998  0.1250000100000001  1.0000
  Al  Al2       1.0  0.6250000099999997  0.6250000199999999  0.62500001  1.0000
  Al  Al3       1.0  0.6250000199999995  0.12500002  0.62500002  1.0000
  Al  Al4       1.0  0.12500000999999986  0.6250000199999999  0.6250000200000001  1.0000
  Mn  Mn1       1.0  1.9999999999999994e-08  1.9999999999999997e-08  2e-08  1.0000
  Mn  Mn2       1.0  0.25000000999999994  0.25  0.2500000099999999  1.0000
  O   O1        1.0  0.8585391799999998  0.8585391799999998  0.85853917  1.0000
  O   O2        1.0  0.85853917  0.8585391699999999  0.42438269000000006  1.0000
  O   O3        1.0  0.8585391699999998  0.4243826799999999  0.8585391600000002  1.0000
  O   O4        1.0  0.4243826899999996  0.8585391699999999  0.8585391700000001  1.0000
  O   O5        1.0  0.8256173599999996  0.3914608999999999  0.3914608900000002  1.0000
  O   O6        1.0  0.3914608899999999  0.8256173599999997  0.39146089  1.0000
  O   O7        1.0  0.3914608899999999  0.39146088999999995  0.8256173700000001  1.0000
  O   O8        1.0  0.39146086  0.39146086999999974  0.39146086  1.0000
