data_image0
_chemical_formula_structural       Ba4O20Ti8
_chemical_formula_sum              "Ba4 O20 Ti8"
_cell_length_a       10.457542988065798
_cell_length_b       3.9631388300000285
_cell_length_c       11.077683442052024
_cell_angle_alpha    89.99999798652222
_cell_angle_beta     90.00037862369412
_cell_angle_gamma    90.00000024164761

_space_group_name_H-M_alt    "P 1"
_space_group_IT_number       1

loop_
  _space_group_symop_operation_xyz
  'x, y, z'

loop_
  _atom_site_type_symbol
  _atom_site_label
  _atom_site_symmetry_multiplicity
  _atom_site_fract_x
  _atom_site_fract_y
  _atom_site_fract_z
  _atom_site_occupancy
  Ba  Ba1       1.0  0.5493933499999999  0.2500000100000001  0.67395112  1.0000
  Ba  Ba2       1.0  0.04939085  0.2499999900000001  0.8260469299999998  1.0000
  Ba  Ba3       1.0  0.4506066400000001  0.7499999900000002  0.32604887  1.0000
  Ba  Ba4       1.0  0.9506091399999999  0.7500000100000003  0.17395308  1.0000
  O   O1        1.0  0.6018331299999999  0.25000002  0.42401594  1.0000
  O   O2        1.0  0.10183080000000001  0.2499999800000001  0.07598374  1.0000
  O   O3        1.0  0.39816686000000007  0.7499999800000002  0.57598406  1.0000
  O   O4        1.0  0.8981692  0.7500000200000001  0.9240162600000001  1.0000
  O   O5        1.0  0.32886174  0.25000003  0.9314674700000001  1.0000
  O   O6        1.0  0.82886191  0.24999997  0.56853138  1.0000
  O   O7        1.0  0.67113826  0.7499999700000001  0.06853254  1.0000
  O   O8        1.0  0.17113810000000002  0.7500000300000003  0.4314686200000001  1.0000
  O   O9        1.0  0.9882385300000001  0.25000003  0.34748774  1.0000
  O   O10       1.0  0.4882416  0.24999997  0.15251167  1.0000
  O   O11       1.0  0.01176148  0.7499999700000002  0.65251225  1.0000
  O   O12       1.0  0.5117583999999998  0.7500000300000002  0.84748833  1.0000
  O   O13       1.0  0.7657932600000003  0.24999999  0.21889766  1.0000
  O   O14       1.0  0.26579094  0.2500000100000001  0.28110488  1.0000
  O   O15       1.0  0.23420673000000003  0.7500000100000003  0.78110234  1.0000
  O   O16       1.0  0.73420905  0.7499999900000002  0.71889512  1.0000
  O   O17       1.0  0.6972471499999999  0.25000001  0.9174319200000001  1.0000
  O   O18       1.0  0.19724718  0.24999999  0.5825699  1.0000
  O   O19       1.0  0.30275285  0.7499999900000001  0.08256808  1.0000
  O   O20       1.0  0.8027528300000001  0.7500000100000003  0.41743009999999997  1.0000
  Ti  Ti1       1.0  0.7697733200000001  0.25000003  0.39614275000000004  1.0000
  Ti  Ti2       1.0  0.26977898000000006  0.24999998  0.10385726  1.0000
  Ti  Ti3       1.0  0.23022669  0.7499999800000002  0.60385726  1.0000
  Ti  Ti4       1.0  0.73022101  0.7500000200000001  0.8961427299999999  1.0000
  Ti  Ti5       1.0  0.64570216  0.2499999500000001  0.09277437  1.0000
  Ti  Ti6       1.0  0.14570773  0.25000005  0.40722525  1.0000
  Ti  Ti7       1.0  0.3542978399999999  0.7500000499999999  0.90722563  1.0000
  Ti  Ti8       1.0  0.85429227  0.7499999500000001  0.59277476  1.0000
