data_image0
_chemical_formula_structural       SrNb6O16
_chemical_formula_sum              "Sr1 Nb6 O16"
_cell_length_a       3.9441008090000094
_cell_length_b       9.233797015343661
_cell_length_c       9.233797288274008
_cell_angle_alpha    110.27640114777675
_cell_angle_beta     90.00000194513949
_cell_angle_gamma    89.99999462449

_space_group_name_H-M_alt    "P 1"
_space_group_IT_number       1

loop_
  _space_group_symop_operation_xyz
  'x, y, z'

loop_
  _atom_site_type_symbol
  _atom_site_label
  _atom_site_symmetry_multiplicity
  _atom_site_fract_x
  _atom_site_fract_y
  _atom_site_fract_z
  _atom_site_occupancy
  Sr  Sr1       1.0  0.49999999000000017  0.60050009  0.39949994  1.0000
  Nb  Nb1       1.0  1.4700000000000001e-06  0.005706769999999994  0.99429321  1.0000
  Nb  Nb2       1.0  0.9999999900000001  0.7907776199999997  0.2092223900000001  1.0000
  Nb  Nb3       1.0  3.1e-07  0.25549849  0.37855765  1.0000
  Nb  Nb4       1.0  2.2000000000000006e-07  0.6214423199999999  0.7445015200000001  1.0000
  Nb  Nb5       1.0  0.9999889800000001  0.99973785  0.6287852700000002  1.0000
  Nb  Nb6       1.0  0.9999918500000001  0.37121473  0.00026217  1.0000
  O   O1        1.0  0.5000011100000001  0.0007201800000001127  0.9992797200000001  1.0000
  O   O2        1.0  0.50000101  0.7776081500000002  0.2223918900000001  1.0000
  O   O3        1.0  0.5000006000000001  0.28899944000000005  0.36877707  1.0000
  O   O4        1.0  0.5000005800000001  0.6312228800000002  0.71100061  1.0000
  O   O5        1.0  0.500001  0.9979126100000001  0.6244420499999999  1.0000
  O   O6        1.0  0.50000094  0.37555799  0.0020875100000001  1.0000
  O   O7        1.0  6.4e-07  0.014794659999999989  0.23324397999999996  1.0000
  O   O8        1.0  6.700000000000003e-07  0.76675599  0.9852053300000001  1.0000
  O   O9        1.0  2.02e-06  0.81269064  0.43957267000000005  1.0000
  O   O10       1.0  1.6900000000000001e-06  0.56042734  0.18730938  1.0000
  O   O11       1.0  9.100000000000001e-07  0.85376113  0.7592690500000001  1.0000
  O   O12       1.0  8.199999999999999e-07  0.2407309  0.14623883  1.0000
  O   O13       1.0  1.43e-06  0.16674624000000007  0.53613706  1.0000
  O   O14       1.0  1.12e-06  0.46386288  0.83325376  1.0000
  O   O15       1.0  2.28e-06  0.14414914000000006  0.85585086  1.0000
  O   O16       1.0  3.8000000000000007e-07  0.4891819600000001  0.51081805  1.0000
