data_image0
_chemical_formula_structural       BaO
_chemical_formula_sum              "Ba1 O1"
_cell_length_a       3.970437475212584
_cell_length_b       3.9704374787481176
_cell_length_c       3.9704374575349153
_cell_angle_alpha    59.999991127753006
_cell_angle_beta     59.99999096868883
_cell_angle_gamma    59.99999115720937

_space_group_name_H-M_alt    "P 1"
_space_group_IT_number       1

loop_
  _space_group_symop_operation_xyz
  'x, y, z'

loop_
  _atom_site_type_symbol
  _atom_site_label
  _atom_site_symmetry_multiplicity
  _atom_site_fract_x
  _atom_site_fract_y
  _atom_site_fract_z
  _atom_site_occupancy
  Ba  Ba1       1.0  3.2288018365354106e-17  -6.457601941090836e-17  0.9999999999999999  1.0000
  O   O1        1.0  0.5000000000000003  0.5  0.49999999999999994  1.0000
