data_image0
_chemical_formula_structural       Co6O8
_chemical_formula_sum              "Co6 O8"
_cell_length_a       5.76105197471078
_cell_length_b       5.76102316706812
_cell_length_c       5.761060526509375
_cell_angle_alpha    60.00040540105232
_cell_angle_beta     60.00075053145469
_cell_angle_gamma    60.000305195911615

_space_group_name_H-M_alt    "P 1"
_space_group_IT_number       1

loop_
  _space_group_symop_operation_xyz
  'x, y, z'

loop_
  _atom_site_type_symbol
  _atom_site_label
  _atom_site_symmetry_multiplicity
  _atom_site_fract_x
  _atom_site_fract_y
  _atom_site_fract_z
  _atom_site_occupancy
  Co  Co1       1.0  1.7899999999013527e-06  0.9999984000000002  2.84e-06  1.0000
  Co  Co2       1.0  0.24999824999999992  0.2500016400000001  0.24999719999999986  1.0000
  Co  Co3       1.0  0.6250000199999998  0.6250000200000001  0.1250000199999999  1.0000
  Co  Co4       1.0  0.6250000199999997  0.6250000200000004  0.6250000199999999  1.0000
  Co  Co5       1.0  0.6250000199999999  0.1250000200000003  0.6250000199999998  1.0000
  Co  Co6       1.0  0.1250000199999998  0.6250000200000002  0.62500002  1.0000
  O   O1        1.0  0.8613352399999995  0.8613346000000004  0.8613359899999999  1.0000
  O   O2        1.0  0.8613339499999998  0.8613349700000003  0.41599535  1.0000
  O   O3        1.0  0.8613358899999994  0.4159944900000004  0.8613351099999998  1.0000
  O   O4        1.0  0.4159951399999995  0.8613358100000005  0.8613339999999998  1.0000
  O   O5        1.0  0.8340048999999999  0.38866424000000027  0.3886660499999999  1.0000
  O   O6        1.0  0.3886641499999997  0.8340055500000001  0.3886649400000001  1.0000
  O   O7        1.0  0.3886660999999997  0.38866508000000016  0.8340046899999999  1.0000
  O   O8        1.0  0.38866480000000003  0.3886654500000001  0.3886640499999999  1.0000
