data_image0
_chemical_formula_structural       Al4Co2O8
_chemical_formula_sum              "Al4 Co2 O8"
_cell_length_a       5.785068821766926
_cell_length_b       5.785073219968189
_cell_length_c       5.7850670094507946
_cell_angle_alpha    59.999970043021726
_cell_angle_beta     60.00004558036872
_cell_angle_gamma    59.999943134714584

_space_group_name_H-M_alt    "P 1"
_space_group_IT_number       1

loop_
  _space_group_symop_operation_xyz
  'x, y, z'

loop_
  _atom_site_type_symbol
  _atom_site_label
  _atom_site_symmetry_multiplicity
  _atom_site_fract_x
  _atom_site_fract_y
  _atom_site_fract_z
  _atom_site_occupancy
  Al  Al1       1.0  0.6250000099999998  0.6250000200000001  0.1250000199999999  1.0000
  Al  Al2       1.0  0.6250000299999997  0.6250000200000002  0.62500002  1.0000
  Al  Al3       1.0  0.6250000199999999  0.12500002  0.62500001  1.0000
  Al  Al4       1.0  0.1250000199999998  0.62500002  0.62500002  1.0000
  Co  Co1       1.0  -1.4324507696681703e-16  1.329603768283532e-16  0.9999999  1.0000
  Co  Co2       1.0  0.2500000299999998  0.25000003  0.2500001299999999  1.0000
  O   O1        1.0  0.8605167199999996  0.8605163300000004  0.8605169399999999  1.0000
  O   O2        1.0  0.8605163499999996  0.8605167300000001  0.4184499999999999  1.0000
  O   O3        1.0  0.8605169800000001  0.41845004  0.86051676  1.0000
  O   O4        1.0  0.41845003999999975  0.8605169899999999  0.8605163299999999  1.0000
  O   O5        1.0  0.8315499999999998  0.38948306000000005  0.3894837099999999  1.0000
  O   O6        1.0  0.38948305999999955  0.8315500000000002  0.3894832999999999  1.0000
  O   O7        1.0  0.3894837199999996  0.3894833000000002  0.83155003  1.0000
  O   O8        1.0  0.38948330999999997  0.38948372  0.3894831  1.0000
