data_image0
_chemical_formula_structural       Fe6O8
_chemical_formula_sum              "Fe6 O8"
_cell_length_a       5.989788372577174
_cell_length_b       6.018727828866189
_cell_length_c       5.99111711218988
_cell_angle_alpha    59.80979931171331
_cell_angle_beta     60.30813896687008
_cell_angle_gamma    59.64724694080209

_space_group_name_H-M_alt    "P 1"
_space_group_IT_number       1

loop_
  _space_group_symop_operation_xyz
  'x, y, z'

loop_
  _atom_site_type_symbol
  _atom_site_label
  _atom_site_symmetry_multiplicity
  _atom_site_fract_x
  _atom_site_fract_y
  _atom_site_fract_z
  _atom_site_occupancy
  Fe  Fe1       1.0  0.8703754500000004  0.8704237599999998  0.8795611000000001  1.0000
  Fe  Fe2       1.0  0.12962383  0.12957712  0.12043801999999999  1.0000
  Fe  Fe3       1.0  9.100000000252936e-07  0.5000003599999998  0.49999892000000024  1.0000
  Fe  Fe4       1.0  0.4999999500000004  0.9999988599999997  0.5000007199999998  1.0000
  Fe  Fe5       1.0  0.4999994500000001  0.49999935  1.34e-06  1.0000
  Fe  Fe6       1.0  0.5000001400000001  0.5000004999999998  0.50000034  1.0000
  O   O1        1.0  0.26252945000000016  0.7345554500000001  0.75225753  1.0000
  O   O2        1.0  0.7344342500000001  0.2627431199999997  0.7504968  1.0000
  O   O3        1.0  0.7374697400000001  0.2654444599999999  0.24774322999999998  1.0000
  O   O4        1.0  0.2655658700000002  0.7372578599999999  0.2495029400000002  1.0000
  O   O5        1.0  0.7480434500000006  0.7330250199999999  0.2662604399999999  1.0000
  O   O6        1.0  0.7328552700000001  0.7481768099999998  0.7528563500000001  1.0000
  O   O7        1.0  0.25195731000000027  0.2669750499999998  0.7337386200000001  1.0000
  O   O8        1.0  0.26714490000000013  0.25182227000000007  0.24714365999999996  1.0000
