data_image0
_chemical_formula_structural       Mg2O10Ti4
_chemical_formula_sum              "Mg2 O10 Ti4"
_cell_length_a       5.276351930373507
_cell_length_b       5.276351929081294
_cell_length_c       10.134076343999999
_cell_angle_alpha    89.999998992172
_cell_angle_beta     90.00000008517891
_cell_angle_gamma    137.94696104822563

_space_group_name_H-M_alt    "P 1"
_space_group_IT_number       1

loop_
  _space_group_symop_operation_xyz
  'x, y, z'

loop_
  _atom_site_type_symbol
  _atom_site_label
  _atom_site_symmetry_multiplicity
  _atom_site_fract_x
  _atom_site_fract_y
  _atom_site_fract_z
  _atom_site_occupancy
  Mg  Mg1       1.0  0.19512355000000006  0.80487645  0.75  1.0000
  Mg  Mg2       1.0  0.80487647  0.19512352999999996  0.24999999999999997  1.0000
  O   O1        1.0  0.046720320000000023  0.95327968  0.8871337300000001  1.0000
  O   O2        1.0  0.95327968  0.0467203200000001  0.11286622  1.0000
  O   O3        1.0  0.04672031999999994  0.95327968  0.61286627  1.0000
  O   O4        1.0  0.9532796799999999  0.0467203200000001  0.38713378  1.0000
  O   O5        1.0  0.31299937000000005  0.6870006299999999  0.9377462599999999  1.0000
  O   O6        1.0  0.68700063  0.3129993700000001  0.06225370999999999  1.0000
  O   O7        1.0  0.31299937000000005  0.6870006299999999  0.56225374  1.0000
  O   O8        1.0  0.68700063  0.3129993700000001  0.43774629  1.0000
  O   O9        1.0  0.78293157  0.21706843000000006  0.75  1.0000
  O   O10       1.0  0.21706841  0.78293159  0.24999999999999997  1.0000
  Ti  Ti1       1.0  0.86634156  0.1336584400000001  0.9333442199999998  1.0000
  Ti  Ti2       1.0  0.13365844000000007  0.8663415600000001  0.06665579  1.0000
  Ti  Ti3       1.0  0.8663415600000002  0.1336584400000001  0.56665578  1.0000
  Ti  Ti4       1.0  0.13365844000000007  0.8663415600000001  0.43334421  1.0000
