data_image0
_chemical_formula_structural       La4Mn2Ni2O12
_chemical_formula_sum              "La4 Mn2 Ni2 O12"
_cell_length_a       5.559094384266365
_cell_length_b       5.543058786000001
_cell_length_c       7.830203830526629
_cell_angle_alpha    89.99999724696694
_cell_angle_beta     90.09193887178625
_cell_angle_gamma    89.99999941209074

_space_group_name_H-M_alt    "P 1"
_space_group_IT_number       1

loop_
  _space_group_symop_operation_xyz
  'x, y, z'

loop_
  _atom_site_type_symbol
  _atom_site_label
  _atom_site_symmetry_multiplicity
  _atom_site_fract_x
  _atom_site_fract_y
  _atom_site_fract_z
  _atom_site_occupancy
  La  La1       1.0  0.5051972  0.4707562299999999  0.7502795899999999  1.0000
  La  La2       1.0  0.9948027299999999  0.9707561799999997  0.74972038  1.0000
  La  La3       1.0  0.4948027899999999  0.52924381  0.24972041999999997  1.0000
  La  La4       1.0  0.005197299999999999  0.029243719999999997  0.25027956  1.0000
  Mn  Mn1       1.0  6e-08  0.49999992  0.0  1.0000
  Mn  Mn2       1.0  0.5000000099999999  4.000000000000001e-08  0.50000003  1.0000
  Ni  Ni1       1.0  0.4999999399999999  1e-07  9.999999999999999e-09  1.0000
  Ni  Ni2       1.0  2.999999999997209e-08  0.49999992  0.49999992  1.0000
  O   O1        1.0  0.21281838999999997  0.77340746  0.035284039999999996  1.0000
  O   O2        1.0  0.2871815799999999  0.27340736  0.46471595999999993  1.0000
  O   O3        1.0  0.7871816099999999  0.22659263999999998  0.96471586  1.0000
  O   O4        1.0  0.71281842  0.7265926299999996  0.53528418  1.0000
  O   O5        1.0  0.2716766199999999  0.2859061299999999  0.03489755  1.0000
  O   O6        1.0  0.22832344999999998  0.7859061400000001  0.46510245999999994  1.0000
  O   O7        1.0  0.7283234399999999  0.71409376  0.9651022999999999  1.0000
  O   O8        1.0  0.7716764999999999  0.21409386  0.5348976599999999  1.0000
  O   O9        1.0  0.43429717999999984  0.009540099999999998  0.74284625  1.0000
  O   O10       1.0  0.06570276  0.50954013  0.7571537999999999  1.0000
  O   O11       1.0  0.56570279  0.9904598899999999  0.25715385999999996  1.0000
  O   O12       1.0  0.9342971499999999  0.49045994999999987  0.24284616999999997  1.0000
