data_image0
_chemical_formula_structural       Mn4O8
_chemical_formula_sum              "Mn4 O8"
_cell_length_a       2.9137272638543816
_cell_length_b       7.1273873231633535
_cell_length_c       7.139309144941715
_cell_angle_alpha    87.68710479025776
_cell_angle_beta     78.22552530152386
_cell_angle_gamma    78.20556185149181

_space_group_name_H-M_alt    "P 1"
_space_group_IT_number       1

loop_
  _space_group_symop_operation_xyz
  'x, y, z'

loop_
  _atom_site_type_symbol
  _atom_site_label
  _atom_site_symmetry_multiplicity
  _atom_site_fract_x
  _atom_site_fract_y
  _atom_site_fract_z
  _atom_site_occupancy
  Mn  Mn1       1.0  0.6514956749240003  0.1813942615069999  0.515618508404  1.0000
  Mn  Mn2       1.0  0.3488952939160002  0.8175215942139998  0.48468343653800006  1.0000
  Mn  Mn3       1.0  0.8336077569820001  0.5140002226659998  0.8187825039310002  1.0000
  Mn  Mn4       1.0  0.16753447743300004  0.48265766354999995  0.18227390837900012  1.0000
  O   O1        1.0  0.8437194118630001  0.9519745038119999  0.36058387725900004  1.0000
  O   O2        1.0  0.15586825274  0.0491323767592  0.6391355186050001  1.0000
  O   O3        1.0  0.796896308359  0.35799180083599996  0.0482142843694  1.0000
  O   O4        1.0  0.20482752528599998  0.63848659597  0.9518600795830001  1.0000
  O   O5        1.0  0.8343053174670003  0.7082698684799998  0.623116625555  1.0000
  O   O6        1.0  0.16174721981800014  0.295777548014  0.38073075755700003  1.0000
  O   O7        1.0  0.5431548108750002  0.6227409622199997  0.29095184678600006  1.0000
  O   O8        1.0  0.457947950339  0.3800536208209999  0.7040476341850002  1.0000
