data_image0
_chemical_formula_structural       Mn4Ba2O16
_chemical_formula_sum              "Mn4 Ba2 O16"
_cell_length_a       7.150616874166504
_cell_length_b       7.150482853919573
_cell_length_c       8.444862773682454
_cell_angle_alpha    103.3499195963932
_cell_angle_beta     103.35035866099096
_cell_angle_gamma    117.04394287074102

_space_group_name_H-M_alt    "P 1"
_space_group_IT_number       1

loop_
  _space_group_symop_operation_xyz
  'x, y, z'

loop_
  _atom_site_type_symbol
  _atom_site_label
  _atom_site_symmetry_multiplicity
  _atom_site_fract_x
  _atom_site_fract_y
  _atom_site_fract_z
  _atom_site_occupancy
  Mn  Mn1       1.0  0.8224152499999999  0.17758418000000004  0.74999947  1.0000
  Mn  Mn2       1.0  0.42759098000000006  0.5724086  0.74999918  1.0000
  Mn  Mn3       1.0  0.1775895100000002  0.8224111300000001  0.25000041999999995  1.0000
  Mn  Mn4       1.0  0.57240334  0.42759752000000006  0.25000114999999995  1.0000
  Ba  Ba1       1.0  0.12499727000000009  0.8749992700000002  0.7499996699999999  1.0000
  Ba  Ba2       1.0  0.8750042200000001  0.12499678999999991  0.24999991  1.0000
  O   O1        1.0  0.35833950999999997  0.3507303099999999  0.7990343999999998  1.0000
  O   O2        1.0  0.9407237600000002  0.4483101799999999  0.7990798199999999  1.0000
  O   O3        1.0  0.6492616000000001  0.6416581799999999  0.7009624999999999  1.0000
  O   O4        1.0  0.5516964499999999  0.05927645999999991  0.70091989  1.0000
  O   O5        1.0  0.6416551000000003  0.6492660500000001  0.20096630999999998  1.0000
  O   O6        1.0  0.0592784900000001  0.5516858200000001  0.20091969999999998  1.0000
  O   O7        1.0  0.3507426  0.35834741  0.29903706  1.0000
  O   O8        1.0  0.44830769000000015  0.9407216400000002  0.2990805999999999  1.0000
  O   O9        1.0  0.06502867000000027  0.8677030800000001  0.08236477  1.0000
  O   O10       1.0  0.51733248  0.21468619  0.08235745999999998  1.0000
  O   O11       1.0  0.13229813000000004  0.9349726400000002  0.41763612999999994  1.0000
  O   O12       1.0  0.7853129800000002  0.48266587000000005  0.4176427899999998  1.0000
  O   O13       1.0  0.9349720599999998  0.13229486999999981  0.9176313899999999  1.0000
  O   O14       1.0  0.4826646600000001  0.7853195300000001  0.9176447  1.0000
  O   O15       1.0  0.86770355  0.06502665999999976  0.5823674199999997  1.0000
  O   O16       1.0  0.21468171  0.51733764  0.5823552399999999  1.0000
