data_image0
_chemical_formula_structural       In8O16Sr4
_chemical_formula_sum              "In8 O16 Sr4"
_cell_length_a       9.971347842000004
_cell_length_b       11.66905742700002
_cell_length_c       3.3205798810000062
_cell_angle_alpha    89.99999988578367
_cell_angle_beta     89.99999995874693
_cell_angle_gamma    90.00000026487885

_space_group_name_H-M_alt    "P 1"
_space_group_IT_number       1

loop_
  _space_group_symop_operation_xyz
  'x, y, z'

loop_
  _atom_site_type_symbol
  _atom_site_label
  _atom_site_symmetry_multiplicity
  _atom_site_fract_x
  _atom_site_fract_y
  _atom_site_fract_z
  _atom_site_occupancy
  In  In1       1.0  0.9185397499999999  0.3939051099999999  0.25  1.0000
  In  In2       1.0  0.41853974999999993  0.10609488999999998  0.24999999  1.0000
  In  In3       1.0  0.08146025  0.60609489  0.75  1.0000
  In  In4       1.0  0.58146025  0.8939051200000001  0.75000001  1.0000
  In  In5       1.0  0.9307999500000002  0.8885154899999999  0.24999998000000004  1.0000
  In  In6       1.0  0.43079995000000004  0.6114845099999998  0.25  1.0000
  In  In7       1.0  0.06920005  0.11148451  0.7500000199999999  1.0000
  In  In8       1.0  0.5692000500000001  0.38851549  0.7499999999999999  1.0000
  O   O1        1.0  0.7064027100000001  0.33216152  0.25  1.0000
  O   O2        1.0  0.20640270999999996  0.16783848  0.25000001  1.0000
  O   O3        1.0  0.29359729  0.6678384800000001  0.75  1.0000
  O   O4        1.0  0.7935972899999999  0.8321615200000001  0.74999999  1.0000
  O   O5        1.0  0.62106731  0.02183419  0.25  1.0000
  O   O6        1.0  0.12106731  0.47816582  0.25  1.0000
  O   O7        1.0  0.37893269000000007  0.9781658100000002  0.75  1.0000
  O   O8        1.0  0.87893268  0.5218341800000001  0.75  1.0000
  O   O9        1.0  0.023697229999999996  0.7172313799999999  0.25  1.0000
  O   O10       1.0  0.5236972299999999  0.78276862  0.25000001  1.0000
  O   O11       1.0  0.97630277  0.28276862  0.75  1.0000
  O   O12       1.0  0.47630277  0.21723137999999997  0.75  1.0000
  O   O13       1.0  0.9185514999999999  0.07434818  0.25000001  1.0000
  O   O14       1.0  0.4185515  0.42565182  0.25  1.0000
  O   O15       1.0  0.08144849999999998  0.92565182  0.7499999999999999  1.0000
  O   O16       1.0  0.5814485000000001  0.5743481799999999  0.75  1.0000
  Sr  Sr1       1.0  0.2559698  0.8476653399999998  0.25  1.0000
  Sr  Sr2       1.0  0.7559698  0.65233466  0.25  1.0000
  Sr  Sr3       1.0  0.7440302000000001  0.15233466  0.75  1.0000
  Sr  Sr4       1.0  0.24403019999999997  0.3476653399999998  0.75  1.0000
