data_image0
_chemical_formula_structural       Mn4O8Mg2
_chemical_formula_sum              "Mn4 O8 Mg2"
_cell_length_a       5.792404255351201
_cell_length_b       5.792403277740423
_cell_length_c       6.250034443821128
_cell_angle_alpha    62.12883150233966
_cell_angle_beta     62.12882638772192
_cell_angle_gamma    89.49378165727629

_space_group_name_H-M_alt    "P 1"
_space_group_IT_number       1

loop_
  _space_group_symop_operation_xyz
  'x, y, z'

loop_
  _atom_site_type_symbol
  _atom_site_label
  _atom_site_symmetry_multiplicity
  _atom_site_fract_x
  _atom_site_fract_y
  _atom_site_fract_z
  _atom_site_occupancy
  Mn  Mn1       1.0  0.8750000099999999  0.1250000099999999  0.75  1.0000
  Mn  Mn2       1.0  0.8750000099999998  0.6249999899999997  0.25  1.0000
  Mn  Mn3       1.0  0.3749999900000001  0.12500001000000005  0.75  1.0000
  Mn  Mn4       1.0  0.8750000099999999  0.12500000999999988  0.25  1.0000
  O   O1        1.0  0.65289095  0.8797179199999999  0.24232448  1.0000
  O   O2        1.0  0.12204269999999995  0.8952158699999998  0.75767525  1.0000
  O   O3        1.0  0.10478418999999999  0.8779573599999997  0.2423247  1.0000
  O   O4        1.0  0.12028206999999987  0.3471090399999999  0.75767547  1.0000
  O   O5        1.0  0.6452158199999999  0.3720426399999999  0.2576753  1.0000
  O   O6        1.0  0.62971793  0.9028909499999997  0.74232454  1.0000
  O   O7        1.0  0.6279573  0.35478412999999986  0.74232475  1.0000
  O   O8        1.0  0.09710904  0.37028206999999996  0.25767552  1.0000
  Mg  Mg1       1.0  0.2500012499999999  0.7499987599999998  0.49999999  1.0000
  Mg  Mg2       1.0  0.4999987499999999  0.5000012399999999  1e-08  1.0000
