data_image0
_chemical_formula_structural       Ba2O38Fe24
_chemical_formula_sum              "Ba2 O38 Fe24"
_cell_length_a       5.939540744806998
_cell_length_b       5.951637453328139
_cell_length_c       23.532974265138353
_cell_angle_alpha    89.90338377077873
_cell_angle_beta     89.97426624174241
_cell_angle_gamma    119.99378139675501

_space_group_name_H-M_alt    "P 1"
_space_group_IT_number       1

loop_
  _space_group_symop_operation_xyz
  'x, y, z'

loop_
  _atom_site_type_symbol
  _atom_site_label
  _atom_site_symmetry_multiplicity
  _atom_site_fract_x
  _atom_site_fract_y
  _atom_site_fract_z
  _atom_site_occupancy
  Ba  Ba1       1.0  0.66936042  0.3384705  0.24743513999999997  1.0000
  Ba  Ba2       1.0  0.33285983  0.6651167599999999  0.74858287  1.0000
  O   O1        1.0  0.00200751  0.00405542  0.34922003  1.0000
  O   O2        1.0  0.0002622899999999397  0.9998035099999999  0.64577528  1.0000
  O   O3        1.0  0.9972939999999999  0.9933068099999998  0.8487356000000001  1.0000
  O   O4        1.0  0.99806898  0.9957673299999997  0.14588843  1.0000
  O   O5        1.0  0.3363738  0.66543514  0.55413884  1.0000
  O   O6        1.0  0.66506502  0.3306819499999999  0.44490394  1.0000
  O   O7        1.0  0.6682082999999999  0.33548816  0.054578829999999995  1.0000
  O   O8        1.0  0.3300521399999999  0.65934643  0.94424084  1.0000
  O   O9        1.0  0.1828263399999999  0.8221886699999997  0.2506427  1.0000
  O   O10       1.0  0.6392141999999995  0.8222702999999996  0.2506441200000001  1.0000
  O   O11       1.0  0.18286847  0.36610268  0.25031002  1.0000
  O   O12       1.0  0.8201305099999999  0.18007906  0.7507347800000002  1.0000
  O   O13       1.0  0.3602870599999999  0.180271  0.75026884  1.0000
  O   O14       1.0  0.8188667599999999  0.63787532  0.7507867100000001  1.0000
  O   O15       1.0  0.15660130999999997  0.8473760599999999  0.44739645  1.0000
  O   O16       1.0  0.69110366  0.8481543999999996  0.44732433  1.0000
  O   O17       1.0  0.1583460899999999  0.3177281199999999  0.4473561300000001  1.0000
  O   O18       1.0  0.84233045  0.15995083  0.55112141  1.0000
  O   O19       1.0  0.31280897  0.1586428099999999  0.55068776  1.0000
  O   O20       1.0  0.8435876599999997  0.6890612599999999  0.55053812  1.0000
  O   O21       1.0  0.8436255799999999  0.15378763  0.9472026600000001  1.0000
  O   O22       1.0  0.31114708  0.15395935  0.94718996  1.0000
  O   O23       1.0  0.8445910099999999  0.68849522  0.94689749  1.0000
  O   O24       1.0  0.15431975999999992  0.8383715499999997  0.05030742999999999  1.0000
  O   O25       1.0  0.68460733  0.8382064799999999  0.0503484  1.0000
  O   O26       1.0  0.1537206799999999  0.30662509  0.05088127  1.0000
  O   O27       1.0  0.5031303299999998  0.49570844999999997  0.35112905000000005  1.0000
  O   O28       1.0  0.9921191799999999  0.49570502  0.3511604600000001  1.0000
  O   O29       1.0  0.5017460999999999  0.00400069  0.35135229  1.0000
  O   O30       1.0  0.4996222299999999  0.50115108  0.64873471  1.0000
  O   O31       1.0  0.0070760199999999876  0.5011061599999999  0.64907944  1.0000
  O   O32       1.0  0.49917779000000007  0.9928802699999999  0.64917157  1.0000
  O   O33       1.0  0.49111311  0.49375692000000004  0.85046707  1.0000
  O   O34       1.0  0.004144329999999996  0.49398232999999986  0.85055716  1.0000
  O   O35       1.0  0.49206554  0.9831732200000001  0.84940632  1.0000
  O   O36       1.0  0.50267774  0.49721353  0.14919475  1.0000
  O   O37       1.0  0.9951397299999999  0.4973352899999999  0.14915191  1.0000
  O   O38       1.0  0.5023053099999999  0.00422834  0.1493585  1.0000
  Fe  Fe1       1.0  0.0013663499999999997  0.0013772199999999995  0.5003429  1.0000
  Fe  Fe2       1.0  0.9990450799999998  0.99747772  4.965e-05  1.0000
  Fe  Fe3       1.0  0.0026314900000000002  0.00522879  0.26227453  1.0000
  Fe  Fe4       1.0  0.9993113699999999  0.9996614399999998  0.76272055  1.0000
  Fe  Fe5       1.0  0.3342087599999999  0.66911592  0.47292446  1.0000
  Fe  Fe6       1.0  0.6673264099999999  0.33598428  0.52686333  1.0000
  Fe  Fe7       1.0  0.66415085  0.3271695  0.97251445  1.0000
  Fe  Fe8       1.0  0.3332186999999999  0.6659527999999999  0.02695946  1.0000
  Fe  Fe9       1.0  0.33742630000000007  0.67542444  0.31078836  1.0000
  Fe  Fe10      1.0  0.6629517499999998  0.3364758299999999  0.6901076500000001  1.0000
  Fe  Fe11      1.0  0.6667501099999998  0.3306547899999999  0.8084392799999999  1.0000
  Fe  Fe12      1.0  0.3375003899999999  0.67455242  0.19099894  1.0000
  Fe  Fe13      1.0  0.16596282999999992  0.8349266699999996  0.6096460899999999  1.0000
  Fe  Fe14      1.0  0.6609544399999999  0.8341244599999998  0.60723839  1.0000
  Fe  Fe15      1.0  0.16663184  0.3396254  0.60721204  1.0000
  Fe  Fe16      1.0  0.8328986999999998  0.17423214  0.39299839  1.0000
  Fe  Fe17      1.0  0.34117247  0.1743805  0.3928985  1.0000
  Fe  Fe18      1.0  0.8324679299999997  0.6656104999999998  0.39161833  1.0000
  Fe  Fe19      1.0  0.8364482299999999  0.17544592  0.10874669999999999  1.0000
  Fe  Fe20      1.0  0.33970135  0.17542927  0.10874248  1.0000
  Fe  Fe21      1.0  0.8344109399999998  0.6681536199999999  0.10702714999999999  1.0000
  Fe  Fe22      1.0  0.16458577  0.8231345  0.89177587  1.0000
  Fe  Fe23      1.0  0.6592923099999999  0.82278629  0.89169305  1.0000
  Fe  Fe24      1.0  0.16873241000000003  0.3362152600000001  0.89250277  1.0000
