data_image0
_chemical_formula_structural       Y12Fe20O48
_chemical_formula_sum              "Y12 Fe20 O48"
_cell_length_a       10.874883033811278
_cell_length_b       10.882855815193203
_cell_length_c       10.881692818612505
_cell_angle_alpha    109.4734252047001
_cell_angle_beta     109.46909774654193
_cell_angle_gamma    109.4901894930667

_space_group_name_H-M_alt    "P 1"
_space_group_IT_number       1

loop_
  _space_group_symop_operation_xyz
  'x, y, z'

loop_
  _atom_site_type_symbol
  _atom_site_label
  _atom_site_symmetry_multiplicity
  _atom_site_fract_x
  _atom_site_fract_y
  _atom_site_fract_z
  _atom_site_occupancy
  Y   Y1        1.0  0.1234356999999999  0.7485353499999999  0.3743282099999999  1.0000
  Y   Y2        1.0  0.37402785  0.24924054  0.12432539999999999  1.0000
  Y   Y3        1.0  0.3744008699999999  0.62443694  0.2491816  1.0000
  Y   Y4        1.0  0.12398575999999989  0.8743966099999998  0.74839865  1.0000
  Y   Y5        1.0  0.75102242  0.62560112  0.37495769  1.0000
  Y   Y6        1.0  0.24863925999999986  0.8743380599999999  0.12390387  1.0000
  Y   Y7        1.0  0.87474483  0.25007760999999995  0.62610789  1.0000
  Y   Y8        1.0  0.62437493  0.7499421999999998  0.87476735  1.0000
  Y   Y9        1.0  0.6237259499999999  0.37412208  0.74796835  1.0000
  Y   Y10       1.0  0.8747956599999996  0.12444930999999998  0.24946844999999998  1.0000
  Y   Y11       1.0  0.25126842999999993  0.37590097999999983  0.62583823  1.0000
  Y   Y12       1.0  0.74921194  0.12449663999999999  0.87435214  1.0000
  Fe  Fe1       1.0  0.9995153999999999  0.49966525999999983  0.9997453200000002  1.0000
  Fe  Fe2       1.0  0.0013408399999999706  0.0016189399999999592  0.49915145000000005  1.0000
  Fe  Fe3       1.0  0.50178704  0.50093418  0.49842343  1.0000
  Fe  Fe4       1.0  0.49986838  0.0007530899999999999  0.00169722  1.0000
  Fe  Fe5       1.0  0.4958224999999999  0.9972530299999998  0.4980610499999999  1.0000
  Fe  Fe6       1.0  0.5005398399999998  0.5000617899999998  0.00043328  1.0000
  Fe  Fe7       1.0  0.99786524  0.49724101999999987  0.49933395  1.0000
  Fe  Fe8       1.0  0.9975229699999999  0.9990559799999997  0.9973130300000002  1.0000
  Fe  Fe9       1.0  0.3744007499999998  0.7500244699999999  0.62512794  1.0000
  Fe  Fe10      1.0  0.12532136  0.25038118  0.87502602  1.0000
  Fe  Fe11      1.0  0.6249654699999998  0.8749372999999999  0.25036786  1.0000
  Fe  Fe12      1.0  0.8751550199999999  0.6248543299999997  0.7500850699999999  1.0000
  Fe  Fe13      1.0  0.7496111499999998  0.37454264  0.12439534  1.0000
  Fe  Fe14      1.0  0.24993970999999995  0.12507457999999996  0.37403479999999995  1.0000
  Fe  Fe15      1.0  0.62487489  0.24994343999999996  0.37525422  1.0000
  Fe  Fe16      1.0  0.8750830399999999  0.75005769  0.12434398999999999  1.0000
  Fe  Fe17      1.0  0.3751730899999999  0.1254190299999998  0.7507201499999999  1.0000
  Fe  Fe18      1.0  0.12462775  0.37497249  0.25006964  1.0000
  Fe  Fe19      1.0  0.2501242699999999  0.6250342899999998  0.8754011  1.0000
  Fe  Fe20      1.0  0.7504205199999999  0.87552626  0.62482157  1.0000
  O   O1        1.0  0.02796321999999987  0.7056309699999999  0.12210835  1.0000
  O   O2        1.0  0.91660428  0.7910397  0.32208791  1.0000
  O   O3        1.0  0.58274769  0.40492164  0.3763008  1.0000
  O   O4        1.0  0.47421392999999995  0.09489381999999999  0.1782655  1.0000
  O   O5        1.0  0.32208543  0.4174013699999999  0.29447414  1.0000
  O   O6        1.0  0.12253558999999987  0.5281740299999999  0.20632283999999998  1.0000
  O   O7        1.0  0.17787387000000002  0.9744335499999999  0.59456832  1.0000
  O   O8        1.0  0.37374849999999993  0.08339141999999988  0.9060820899999998  1.0000
  O   O9        1.0  0.9066089399999999  0.8748308999999999  0.5838050199999999  1.0000
  O   O10       1.0  0.59493553  0.6783098399999999  0.47379037  1.0000
  O   O11       1.0  0.20648949999999988  0.6231630299999997  0.02876137  1.0000
  O   O12       1.0  0.2956257799999999  0.8225229799999999  0.9177347  1.0000
  O   O13       1.0  0.9732949999999998  0.2954859499999998  0.8786612399999998  1.0000
  O   O14       1.0  0.08360193999999996  0.20930485999999993  0.67729282  1.0000
  O   O15       1.0  0.41594307999999997  0.5945385499999999  0.62558867  1.0000
  O   O16       1.0  0.53148624  0.90708041  0.82246037  1.0000
  O   O17       1.0  0.6776603  0.58280421  0.70471555  1.0000
  O   O18       1.0  0.8779913100000001  0.4728018  0.79516153  1.0000
  O   O19       1.0  0.82244838  0.02745501000000001  0.4054129  1.0000
  O   O20       1.0  0.62560181  0.91608798  0.0944337199999999  1.0000
  O   O21       1.0  0.09427190000000003  0.12168504000000001  0.4155611  1.0000
  O   O22       1.0  0.40563637  0.32218180999999996  0.52957926  1.0000
  O   O23       1.0  0.79306563  0.3760632799999999  0.9709782800000001  1.0000
  O   O24       1.0  0.70464646  0.17749349999999997  0.08307413999999999  1.0000
  O   O25       1.0  0.52596737  0.12107157000000002  0.70411586  1.0000
  O   O26       1.0  0.41693897999999996  0.3228583799999999  0.79201304  1.0000
  O   O27       1.0  0.08272415999999998  0.37667727999999984  0.4050596  1.0000
  O   O28       1.0  0.9714344699999999  0.1776627  0.0947431  1.0000
  O   O29       1.0  0.8218239699999997  0.29286741  0.4166191  1.0000
  O   O30       1.0  0.6242836199999999  0.20839506999999988  0.53072882  1.0000
  O   O31       1.0  0.67782486  0.5952515099999999  0.97217464  1.0000
  O   O32       1.0  0.8788048299999999  0.90520413  0.08290793  1.0000
  O   O33       1.0  0.40544907  0.5831316999999998  0.8795048  1.0000
  O   O34       1.0  0.09525412999999999  0.47367233999999986  0.6780468499999999  1.0000
  O   O35       1.0  0.70857638  0.030868140000000023  0.6251677  1.0000
  O   O36       1.0  0.7946311699999999  0.9164064099999998  0.82180158  1.0000
  O   O37       1.0  0.4722410299999998  0.8779744299999998  0.29436841  1.0000
  O   O38       1.0  0.5838747799999999  0.6778181  0.21041059  1.0000
  O   O39       1.0  0.91628775  0.62061893  0.59430667  1.0000
  O   O40       1.0  0.02826399999999994  0.8224379199999998  0.90470538  1.0000
  O   O41       1.0  0.1774915999999999  0.7100321100000001  0.58358071  1.0000
  O   O42       1.0  0.37743995999999996  0.7937171899999999  0.47180268999999997  1.0000
  O   O43       1.0  0.32261256  0.40523720999999996  0.02846472  1.0000
  O   O44       1.0  0.12098201000000007  0.09558483999999985  0.9169603100000001  1.0000
  O   O45       1.0  0.5948248299999999  0.41697018999999996  0.12197540999999999  1.0000
  O   O46       1.0  0.9047439099999999  0.52609769  0.32193394999999997  1.0000
  O   O47       1.0  0.2930583099999998  0.9710675899999999  0.37652405000000005  1.0000
  O   O48       1.0  0.20979228  0.08379211999999998  0.17745833999999996  1.0000
