data_image0
_chemical_formula_structural       Ba6Mn4Ce2O18
_chemical_formula_sum              "Ba6 Mn4 Ce2 O18"
_cell_length_a       5.904214574000037
_cell_length_b       5.904214558244862
_cell_length_c       14.609498536000002
_cell_angle_alpha    89.99999977661963
_cell_angle_beta     89.99999972089434
_cell_angle_gamma    120.00001301983617

_space_group_name_H-M_alt    "P 1"
_space_group_IT_number       1

loop_
  _space_group_symop_operation_xyz
  'x, y, z'

loop_
  _atom_site_type_symbol
  _atom_site_label
  _atom_site_symmetry_multiplicity
  _atom_site_fract_x
  _atom_site_fract_y
  _atom_site_fract_z
  _atom_site_occupancy
  Ba  Ba1       1.0  5.0000000159114866e-08  0.99999997  0.7499999999999999  1.0000
  Ba  Ba2       1.0  0.9999999899999998  3e-08  0.24999999999999997  1.0000
  Ba  Ba3       1.0  0.33333336  0.6666666799999998  0.8983281199999997  1.0000
  Ba  Ba4       1.0  0.66666669  0.33333332  0.1016719  1.0000
  Ba  Ba5       1.0  0.3333333399999999  0.6666666699999999  0.6016718999999999  1.0000
  Ba  Ba6       1.0  0.6666667099999999  0.33333334  0.39832810999999996  1.0000
  Mn  Mn1       1.0  0.6666667199999999  0.3333333299999999  0.8382876199999998  1.0000
  Mn  Mn2       1.0  0.3333333399999999  0.6666666699999999  0.16171239  1.0000
  Mn  Mn3       1.0  0.6666666999999998  0.3333333199999999  0.6617123799999999  1.0000
  Mn  Mn4       1.0  0.33333336  0.6666666899999999  0.33828761  1.0000
  Ce  Ce1       1.0  2e-08  1e-08  9.999999999999999e-09  1.0000
  Ce  Ce2       1.0  9.99999986634859e-09  1.0  0.49999999  1.0000
  O   O1        1.0  0.8228258099999998  0.6456804199999998  0.9103065799999998  1.0000
  O   O2        1.0  0.6456804199999999  0.8228546299999999  0.08969336999999998  1.0000
  O   O3        1.0  0.8228546999999999  0.1771742499999999  0.9103065799999998  1.0000
  O   O4        1.0  0.17714531999999994  0.8228257799999998  0.08969340999999999  1.0000
  O   O5        1.0  0.35431968  0.1771454  0.9103066099999998  1.0000
  O   O6        1.0  0.1771742199999999  0.3543195499999999  0.08969340999999999  1.0000
  O   O7        1.0  0.8228257599999999  0.6456803399999997  0.58969339  1.0000
  O   O8        1.0  0.6456804799999999  0.8228546899999999  0.41030659999999997  1.0000
  O   O9        1.0  0.82285465  0.17717421  0.58969342  1.0000
  O   O10       1.0  0.17714536999999994  0.8228258199999997  0.41030659  1.0000
  O   O11       1.0  0.35431963  0.17714535  0.5896934199999999  1.0000
  O   O12       1.0  0.17717425  0.3543195899999999  0.41030662999999984  1.0000
  O   O13       1.0  0.5214512399999999  0.4785223699999999  0.7499999999999999  1.0000
  O   O14       1.0  0.4785225599999998  0.9570713699999998  0.24999998999999998  1.0000
  O   O15       1.0  0.9570713099999999  0.4785489199999999  0.7499999899999998  1.0000
  O   O16       1.0  0.04292866  0.52145106  0.24999999999999997  1.0000
  O   O17       1.0  0.52147753  0.04292871  0.7499999999999999  1.0000
  O   O18       1.0  0.4785488299999999  0.5214775899999999  0.24999999999999997  1.0000
