data_image0
_chemical_formula_structural       Fe2O12La6
_chemical_formula_sum              "Fe2 O12 La6"
_cell_length_a       5.764409424000018
_cell_length_b       7.648722528909246
_cell_length_c       7.648722072062338
_cell_angle_alpha    102.97562200040507
_cell_angle_beta     89.99999767301048
_cell_angle_gamma    90.00000150590627

_space_group_name_H-M_alt    "P 1"
_space_group_IT_number       1

loop_
  _space_group_symop_operation_xyz
  'x, y, z'

loop_
  _atom_site_type_symbol
  _atom_site_label
  _atom_site_symmetry_multiplicity
  _atom_site_fract_x
  _atom_site_fract_y
  _atom_site_fract_z
  _atom_site_occupancy
  Fe  Fe1       1.0  0.50087309  0.3078647199999999  0.6921351899999999  1.0000
  Fe  Fe2       1.0  0.00087309  0.69213529  0.3078648099999999  1.0000
  O   O1        1.0  0.19706361000000003  0.8523998399999998  0.8284415699999997  1.0000
  O   O2        1.0  0.19706362000000002  0.17155850000000003  0.14760016  1.0000
  O   O3        1.0  0.6970636199999999  0.14760016  0.17155843  1.0000
  O   O4        1.0  0.69706361  0.8284414899999998  0.8523998399999999  1.0000
  O   O5        1.0  0.16709971  0.9118393299999998  0.39061355999999997  1.0000
  O   O6        1.0  0.16709974  0.60938653  0.08816077999999998  1.0000
  O   O7        1.0  0.6670997099999999  0.08816067999999998  0.6093864299999999  1.0000
  O   O8        1.0  0.66709974  0.39061348  0.91183922  1.0000
  O   O9        1.0  0.13508043  0.5461576799999999  0.45384251  1.0000
  O   O10       1.0  0.63508043  0.45384233999999984  0.5461574999999999  1.0000
  O   O11       1.0  0.17226508  0.2865816999999999  0.7134182999999998  1.0000
  O   O12       1.0  0.67226509  0.71341829  0.28658169999999994  1.0000
  La  La1       1.0  0.46356488000000007  0.8010830300000001  0.58631634  1.0000
  La  La2       1.0  0.46356493000000004  0.41368366000000006  0.19891689  1.0000
  La  La3       1.0  0.9635649000000001  0.19891697  0.41368364999999996  1.0000
  La  La4       1.0  0.9635649199999999  0.58631635  0.8010831099999999  1.0000
  La  La5       1.0  0.92620586  0.10508409  0.8949158399999999  1.0000
  La  La6       1.0  0.42620587000000004  0.8949159099999999  0.10508415999999988  1.0000
