data_image0
_chemical_formula_structural       Ca4Co8O16
_chemical_formula_sum              "Ca4 Co8 O16"
_cell_length_a       8.854925825000715
_cell_length_b       2.9343293330009286
_cell_length_c       10.353531624004336
_cell_angle_alpha    89.99999446563577
_cell_angle_beta     90.00003561573193
_cell_angle_gamma    90.00000159584893

_space_group_name_H-M_alt    "P 1"
_space_group_IT_number       1

loop_
  _space_group_symop_operation_xyz
  'x, y, z'

loop_
  _atom_site_type_symbol
  _atom_site_label
  _atom_site_symmetry_multiplicity
  _atom_site_fract_x
  _atom_site_fract_y
  _atom_site_fract_z
  _atom_site_occupancy
  Ca  Ca1       1.0  0.26172811  0.24999833000000002  0.8363486799999998  1.0000
  Ca  Ca2       1.0  0.76172766  0.25000025  0.66365136  1.0000
  Ca  Ca3       1.0  0.7382723599999998  0.75000013  0.16365125  1.0000
  Ca  Ca4       1.0  0.23827203  0.7500009400000001  0.33634886  1.0000
  Co  Co1       1.0  0.9155420699999999  0.25000076000000004  0.40235915000000005  1.0000
  Co  Co2       1.0  0.41554246  0.24999906  0.09764098999999998  1.0000
  Co  Co3       1.0  0.08445759  0.75000004  0.59764096  1.0000
  Co  Co4       1.0  0.58445768  0.74999832  0.9023590099999999  1.0000
  Co  Co5       1.0  0.9439193299999998  0.24999937000000003  0.8882430899999999  1.0000
  Co  Co6       1.0  0.44391881  0.25000014  0.6117566699999999  1.0000
  Co  Co7       1.0  0.05608135  0.7500003400000003  0.11175658  1.0000
  Co  Co8       1.0  0.55608101  0.75000383  0.38824309  1.0000
  O   O1        1.0  0.6972104999999998  0.25000146  0.34406712  1.0000
  O   O2        1.0  0.19721084  0.25000015  0.15593321999999998  1.0000
  O   O3        1.0  0.30279029  0.7499997800000003  0.65593256  1.0000
  O   O4        1.0  0.8027906199999999  0.7499993400000002  0.84406702  1.0000
  O   O5        1.0  0.6140612  0.24999836000000003  0.02401365  1.0000
  O   O6        1.0  0.11406067  0.25000034  0.4759862599999999  1.0000
  O   O7        1.0  0.38593884  0.7499980700000001  0.97598738  1.0000
  O   O8        1.0  0.8859384  0.7500005800000001  0.52401303  1.0000
  O   O9        1.0  0.03256454  0.24999974000000003  0.71211417  1.0000
  O   O10       1.0  0.5325638799999999  0.2499985  0.78788586  1.0000
  O   O11       1.0  0.9674347200000001  0.7500009500000001  0.28788638999999994  1.0000
  O   O12       1.0  0.4674355900000001  0.7499990300000001  0.21211374  1.0000
  O   O13       1.0  0.9191131700000001  0.25000043  0.07194904  1.0000
  O   O14       1.0  0.41911276  0.25000145  0.4280507199999999  1.0000
  O   O15       1.0  0.08088701  0.74999962  0.92804996  1.0000
  O   O16       1.0  0.58088649  0.7500006799999999  0.5719501699999999  1.0000
