data_image0
_chemical_formula_structural       Ce4Sr12O48Mn16
_chemical_formula_sum              "Ce4 Sr12 O48 Mn16"
_cell_length_a       10.84682580242932
_cell_length_b       11.012441769530348
_cell_length_c       11.049172462449295
_cell_angle_alpha    92.67894837444273
_cell_angle_beta     119.1356879379116
_cell_angle_gamma    118.87690777275428

_space_group_name_H-M_alt    "P 1"
_space_group_IT_number       1

loop_
  _space_group_symop_operation_xyz
  'x, y, z'

loop_
  _atom_site_type_symbol
  _atom_site_label
  _atom_site_symmetry_multiplicity
  _atom_site_fract_x
  _atom_site_fract_y
  _atom_site_fract_z
  _atom_site_occupancy
  Ce  Ce1       1.0  0.74911247  0.8701553099999998  0.8767196699999998  1.0000
  Ce  Ce2       1.0  0.75737621  0.38234947  0.8753186399999999  1.0000
  Ce  Ce3       1.0  0.24739395  0.12774510999999997  0.6200676999999999  1.0000
  Ce  Ce4       1.0  0.74405162  0.8646254899999998  0.3733469999999999  1.0000
  Sr  Sr1       1.0  0.7480911599999998  0.6259050099999999  0.6165173399999999  1.0000
  Sr  Sr2       1.0  0.25335014999999983  0.8721775099999997  0.37759754  1.0000
  Sr  Sr3       1.0  0.24676239999999988  0.6282813299999999  0.12156720999999998  1.0000
  Sr  Sr4       1.0  0.25507064999999995  0.13074847  0.1276582  1.0000
  Sr  Sr5       1.0  0.24765644999999997  0.3762313299999999  0.37048254  1.0000
  Sr  Sr6       1.0  0.7489150300000001  0.11909247999999997  0.6258617099999999  1.0000
  Sr  Sr7       1.0  0.24546915000000005  0.37898216  0.8781136599999999  1.0000
  Sr  Sr8       1.0  0.75530774  0.12562899  0.13205775  1.0000
  Sr  Sr9       1.0  0.25482645999999987  0.8811328799999998  0.8754177499999999  1.0000
  Sr  Sr10      1.0  0.74551429  0.6199980099999999  0.12690886  1.0000
  Sr  Sr11      1.0  0.24471899999999996  0.6194164  0.62295827  1.0000
  Sr  Sr12      1.0  0.75044314  0.3758387  0.3753233  1.0000
  O   O1        1.0  0.0032207000000001713  0.8905447900000001  0.8914786999999998  1.0000
  O   O2        1.0  0.9857566200000001  0.09693902  0.12071664999999998  1.0000
  O   O3        1.0  0.95012789  0.8430131599999998  0.10583286  1.0000
  O   O4        1.0  0.03323540000000005  0.14798184  0.8820086599999999  1.0000
  O   O5        1.0  0.73179337  0.87059039  0.6522510199999999  1.0000
  O   O6        1.0  0.75295998  0.09179002999999991  0.8591403299999999  1.0000
  O   O7        1.0  0.24244358  0.8838512300000002  0.14360745  1.0000
  O   O8        1.0  0.24648239  0.09842923  0.36435545  1.0000
  O   O9        1.0  0.7454684700000002  0.61143346  0.8413262099999999  1.0000
  O   O10       1.0  0.75085465  0.8865039899999999  0.15763274  1.0000
  O   O11       1.0  0.2724621299999999  0.12781646999999996  0.8415852199999999  1.0000
  O   O12       1.0  0.24593169  0.3918988199999999  0.13651076  1.0000
  O   O13       1.0  0.54147624  0.6458210599999998  0.89422239  1.0000
  O   O14       1.0  0.46424972  0.365694  0.09501007  1.0000
  O   O15       1.0  0.9666366099999999  0.85547881  0.6125347  1.0000
  O   O16       1.0  0.9545873999999998  0.3529256899999999  0.09978518  1.0000
  O   O17       1.0  0.03216673999999999  0.6570242699999999  0.8769691399999999  1.0000
  O   O18       1.0  0.04634747999999997  0.14548872  0.39867317  1.0000
  O   O19       1.0  0.45851562000000007  0.8546744799999999  0.60900284  1.0000
  O   O20       1.0  0.53506284  0.14066779  0.3933474599999999  1.0000
  O   O21       1.0  0.48072984999999996  0.6133317599999999  0.62240227  1.0000
  O   O22       1.0  0.51440202  0.8762539199999999  0.88133443  1.0000
  O   O23       1.0  0.9714134499999999  0.6063428900000001  0.08292245  1.0000
  O   O24       1.0  0.005313699999999961  0.8918675999999999  0.3930661899999999  1.0000
  O   O25       1.0  0.98598541  0.09998192999999998  0.6031066099999999  1.0000
  O   O26       1.0  0.9809791399999999  0.39291462000000005  0.87151739  1.0000
  O   O27       1.0  0.49673987  0.38092718  0.36080914  1.0000
  O   O28       1.0  0.4907719399999999  0.13203868  0.10990274  1.0000
  O   O29       1.0  0.96622987  0.3480516799999999  0.6186037  1.0000
  O   O30       1.0  0.032680870000000035  0.6498222099999997  0.3860817699999999  1.0000
  O   O31       1.0  0.51951465  0.8709072299999998  0.3923580199999999  1.0000
  O   O32       1.0  0.52713544  0.14100683  0.65788686  1.0000
  O   O33       1.0  0.53466446  0.6454465799999999  0.39166487  1.0000
  O   O34       1.0  0.57076128  0.16221967999999987  0.9079059399999999  1.0000
  O   O35       1.0  0.46810683999999997  0.8610915099999998  0.10780283  1.0000
  O   O36       1.0  0.45538819999999997  0.34819542  0.60492413  1.0000
  O   O37       1.0  0.53293737  0.3812163499999999  0.8732953799999998  1.0000
  O   O38       1.0  0.49673861  0.6343680999999999  0.12656521  1.0000
  O   O39       1.0  0.0073442699999999635  0.36894395  0.39370619  1.0000
  O   O40       1.0  0.9973016699999999  0.61513442  0.6159756099999999  1.0000
  O   O41       1.0  0.7496712599999998  0.3986090199999999  0.6484832399999999  1.0000
  O   O42       1.0  0.7538756499999999  0.09881811  0.36056773  1.0000
  O   O43       1.0  0.27414890999999997  0.9243363699999999  0.65654398  1.0000
  O   O44       1.0  0.24659274  0.6115453199999998  0.3526130299999999  1.0000
  O   O45       1.0  0.24934823999999997  0.6105412399999999  0.8567886699999999  1.0000
  O   O46       1.0  0.25238605  0.3696609699999999  0.65628932  1.0000
  O   O47       1.0  0.7527781499999999  0.3938264299999999  0.1476585  1.0000
  O   O48       1.0  0.7329990799999999  0.6163815099999999  0.34796829  1.0000
  Mn  Mn1       1.0  0.0023000099999999995  0.0007679999999999845  0.7523163799999999  1.0000
  Mn  Mn2       1.0  0.00015974000000006498  0.9954621999999997  0.2518110199999999  1.0000
  Mn  Mn3       1.0  0.51007409  0.006087960000000024  0.75786131  1.0000
  Mn  Mn4       1.0  0.4984935099999999  0.0007331199999999918  0.24925258  1.0000
  Mn  Mn5       1.0  0.49892005999999983  0.4985156999999998  0.7471590899999999  1.0000
  Mn  Mn6       1.0  0.49391490999999993  0.49723142999999986  0.24496142  1.0000
  Mn  Mn7       1.0  0.99716674  0.50381588  0.7466120599999999  1.0000
  Mn  Mn8       1.0  0.9994919899999998  0.49939767  0.25141738  1.0000
  Mn  Mn9       1.0  0.9995107499999999  0.7525135099999999  0.9955453999999999  1.0000
  Mn  Mn10      1.0  0.0004121599999999848  0.2486969699999999  0.9994370299999998  1.0000
  Mn  Mn11      1.0  0.49347417  0.7466885499999999  0.5000863399999999  1.0000
  Mn  Mn12      1.0  0.4989085799999999  0.24962937999999998  0.49519656  1.0000
  Mn  Mn13      1.0  0.4967644199999998  0.7498546199999999  0.00075607  1.0000
  Mn  Mn14      1.0  0.5096083199999999  0.25521598  0.00236318  1.0000
  Mn  Mn15      1.0  0.0021063600000000198  0.7486766  0.5024677399999999  1.0000
  Mn  Mn16      1.0  0.9979157699999999  0.24605498  0.50210381  1.0000
