data_image0
_chemical_formula_structural       Ba12O20Fe4
_chemical_formula_sum              "Ba12 O20 Fe4"
_cell_length_a       10.62078056500104
_cell_length_b       8.394316796006773
_cell_length_c       7.3678118960062475
_cell_angle_alpha    90.00014349308633
_cell_angle_beta     90.00000881231998
_cell_angle_gamma    90.00004236736358

_space_group_name_H-M_alt    "P 1"
_space_group_IT_number       1

loop_
  _space_group_symop_operation_xyz
  'x, y, z'

loop_
  _atom_site_type_symbol
  _atom_site_label
  _atom_site_symmetry_multiplicity
  _atom_site_fract_x
  _atom_site_fract_y
  _atom_site_fract_z
  _atom_site_occupancy
  Ba  Ba1       1.0  0.68258108  0.4731242299999999  0.4244497400000001  1.0000
  Ba  Ba2       1.0  0.18258149  0.02687527  0.07555094000000001  1.0000
  Ba  Ba3       1.0  0.31741909  0.9731251899999998  0.57555173  1.0000
  Ba  Ba4       1.0  0.8174187000000002  0.52687588  0.9244491099999999  1.0000
  Ba  Ba5       1.0  0.31741963  0.52687676  0.5755513199999999  1.0000
  Ba  Ba6       1.0  0.8174199600000001  0.9731243300000001  0.92444803  1.0000
  Ba  Ba7       1.0  0.68258028  0.026875880000000005  0.4244474599999999  1.0000
  Ba  Ba8       1.0  0.18257989  0.47312378  0.07555208000000001  1.0000
  Ba  Ba9       1.0  0.9746795700000002  0.7500004700000001  0.37769335  1.0000
  Ba  Ba10      1.0  0.47467963  0.7500003399999998  0.12230679000000001  1.0000
  Ba  Ba11      1.0  0.025320440000000003  0.24999857  0.6223067  1.0000
  Ba  Ba12      1.0  0.5253203600000002  0.2500010200000001  0.87769328  1.0000
  O   O1        1.0  0.76442127  0.75000042  0.65913158  1.0000
  O   O2        1.0  0.26442138  0.7499996699999999  0.84086852  1.0000
  O   O3        1.0  0.23557872  0.25000083  0.3408685  1.0000
  O   O4        1.0  0.73557863  0.24999967  0.15913156  1.0000
  O   O5        1.0  0.9351660600000001  0.44474660999999993  0.2880600400000001  1.0000
  O   O6        1.0  0.43516542999999996  0.0552546  0.21193870000000004  1.0000
  O   O7        1.0  0.06483369  0.9447439099999999  0.7119368299999999  1.0000
  O   O8        1.0  0.56483359  0.5552553899999999  0.78806114  1.0000
  O   O9        1.0  0.06483446  0.5552512999999999  0.71193982  1.0000
  O   O10       1.0  0.56483479  0.9447478200000001  0.78806249  1.0000
  O   O11       1.0  0.9351658199999999  0.05525413  0.28806354000000006  1.0000
  O   O12       1.0  0.43516616999999996  0.4447470099999999  0.21193774  1.0000
  O   O13       1.0  0.49741697000000007  0.75000211  0.4982716799999999  1.0000
  O   O14       1.0  0.99741688  0.74999956  0.0017285600000000003  1.0000
  O   O15       1.0  0.50258299  0.2500012  0.5017283699999999  1.0000
  O   O16       1.0  0.0025831  0.24999737  0.99827155  1.0000
  O   O17       1.0  0.71814865  0.7500009999999999  0.16294986000000003  1.0000
  O   O18       1.0  0.21814864  0.74999785  0.3370503999999999  1.0000
  O   O19       1.0  0.28185135  0.24999613000000004  0.83705017  1.0000
  O   O20       1.0  0.78185135  0.25000111  0.66294965  1.0000
  Fe  Fe1       1.0  0.59333031  0.75000114  0.6985725299999999  1.0000
  Fe  Fe2       1.0  0.09333031  0.7499993499999997  0.80142744  1.0000
  Fe  Fe3       1.0  0.40666955999999993  0.25000038  0.3014261599999999  1.0000
  Fe  Fe4       1.0  0.9066697799999998  0.24999971  0.19857259  1.0000
