data_image0
_chemical_formula_structural       Sr12Mn8O28
_chemical_formula_sum              "Sr12 Mn8 O28"
_cell_length_a       7.679757771189608
_cell_length_b       7.679753097203825
_cell_length_c       10.519140254076191
_cell_angle_alpha    100.52145126447438
_cell_angle_beta     100.52145683183548
_cell_angle_gamma    89.9957961534344

_space_group_name_H-M_alt    "P 1"
_space_group_IT_number       1

loop_
  _space_group_symop_operation_xyz
  'x, y, z'

loop_
  _atom_site_type_symbol
  _atom_site_label
  _atom_site_symmetry_multiplicity
  _atom_site_fract_x
  _atom_site_fract_y
  _atom_site_fract_z
  _atom_site_occupancy
  Sr  Sr1       1.0  0.24999990999999996  0.2499999  2.3000000000000002e-07  1.0000
  Sr  Sr2       1.0  0.74999991  0.2499999  2.2e-07  1.0000
  Sr  Sr3       1.0  0.24999990999999996  0.7499999  2.2e-07  1.0000
  Sr  Sr4       1.0  0.7499999100000001  0.74999991  2.3000000000000002e-07  1.0000
  Sr  Sr5       1.0  0.34171233999999984  0.34171234  0.36678981000000005  1.0000
  Sr  Sr6       1.0  0.15828784  0.15828783  0.63321121  1.0000
  Sr  Sr7       1.0  0.84171234  0.34171234  0.36678982  1.0000
  Sr  Sr8       1.0  0.65828784  0.15828783000000002  0.6332112000000001  1.0000
  Sr  Sr9       1.0  0.34171233999999995  0.8417123399999998  0.36678982  1.0000
  Sr  Sr10      1.0  0.15828784000000004  0.65828783  0.6332112000000001  1.0000
  Sr  Sr11      1.0  0.84171234  0.8417123399999998  0.36678981000000005  1.0000
  Sr  Sr12      1.0  0.6582878399999998  0.6582878199999999  0.63321121  1.0000
  Mn  Mn1       1.0  0.4514458099999999  0.45144578999999996  0.8058906599999999  1.0000
  Mn  Mn2       1.0  0.04855384000000001  0.04855384  0.19410943000000003  1.0000
  Mn  Mn3       1.0  0.9514457399999999  0.4514457199999999  0.8058903800000001  1.0000
  Mn  Mn4       1.0  0.5485538199999999  0.04855382  0.19410937  1.0000
  Mn  Mn5       1.0  0.4514457399999998  0.9514457199999999  0.80589038  1.0000
  Mn  Mn6       1.0  0.04855382  0.5485538199999999  0.19410937  1.0000
  Mn  Mn7       1.0  0.95144581  0.9514457899999997  0.80589066  1.0000
  Mn  Mn8       1.0  0.54855384  0.54855384  0.19410943000000003  1.0000
  O   O1        1.0  1.699999999072436e-07  1.900000000053127e-07  0.99999952  1.0000
  O   O2        1.0  0.50000036  3.7e-07  2.4e-07  1.0000
  O   O3        1.0  3.5999999999999973e-07  0.5000003699999999  2.4e-07  1.0000
  O   O4        1.0  0.50000018  0.50000019  0.9999995200000001  1.0000
  O   O5        1.0  0.40376938000000007  0.40376936  0.6153069300000001  1.0000
  O   O6        1.0  0.09623058000000001  0.09623059000000002  0.38469353000000006  1.0000
  O   O7        1.0  0.90376925  0.40376923  0.6153064100000001  1.0000
  O   O8        1.0  0.5962304799999999  0.09623047999999998  0.3846931  1.0000
  O   O9        1.0  0.40376925  0.9037692300000001  0.6153064100000001  1.0000
  O   O10       1.0  0.09623047  0.5962304899999998  0.3846931  1.0000
  O   O11       1.0  0.9037693799999998  0.90376936  0.6153069300000001  1.0000
  O   O12       1.0  0.59623058  0.59623059  0.38469353000000006  1.0000
  O   O13       1.0  0.2019648499999999  0.45197670999999984  0.80793332  1.0000
  O   O14       1.0  0.4519767  0.20196483999999998  0.80793327  1.0000
  O   O15       1.0  0.29803678  0.0480234  0.19206619  1.0000
  O   O16       1.0  0.04802340000000001  0.29803681  0.19206623000000003  1.0000
  O   O17       1.0  0.70196328  0.45197672  0.8079333100000001  1.0000
  O   O18       1.0  0.9519766899999998  0.20196327  0.8079332599999999  1.0000
  O   O19       1.0  0.7980353000000001  0.04802340000000001  0.19206618000000003  1.0000
  O   O20       1.0  0.5480233999999999  0.2980353199999998  0.19206623000000003  1.0000
  O   O21       1.0  0.20196327999999994  0.9519767199999999  0.8079333100000001  1.0000
  O   O22       1.0  0.4519767  0.7019632699999999  0.80793327  1.0000
  O   O23       1.0  0.29803528999999995  0.5480233999999998  0.19206618000000003  1.0000
  O   O24       1.0  0.0480234  0.79803532  0.19206622  1.0000
  O   O25       1.0  0.70196485  0.9519767099999997  0.8079333100000001  1.0000
  O   O26       1.0  0.9519767  0.70196484  0.80793327  1.0000
  O   O27       1.0  0.79803678  0.5480233999999998  0.19206618000000003  1.0000
  O   O28       1.0  0.5480233999999999  0.7980367999999999  0.19206623000000003  1.0000
