data_image0
_chemical_formula_structural       O14Ti4Y4
_chemical_formula_sum              "O14 Ti4 Y4"
_cell_length_a       7.264448414538477
_cell_length_b       7.264447995224194
_cell_length_c       7.264448422316666
_cell_angle_alpha    59.999988189352415
_cell_angle_beta     59.99998978321068
_cell_angle_gamma    59.999990279077075

_space_group_name_H-M_alt    "P 1"
_space_group_IT_number       1

loop_
  _space_group_symop_operation_xyz
  'x, y, z'

loop_
  _atom_site_type_symbol
  _atom_site_label
  _atom_site_symmetry_multiplicity
  _atom_site_fract_x
  _atom_site_fract_y
  _atom_site_fract_z
  _atom_site_occupancy
  O   O1        1.0  0.07878048000000001  0.0787804799999999  0.67121949  1.0000
  O   O2        1.0  0.6712194700000002  0.67121952  0.07878046  1.0000
  O   O3        1.0  0.07878055000000003  0.6712193700000001  0.07878056  1.0000
  O   O4        1.0  0.6712193499999998  0.07878052  0.6712194999999999  1.0000
  O   O5        1.0  0.67121941  0.0787804800000001  0.0787804999999999  1.0000
  O   O6        1.0  0.07878049000000005  0.67121941  0.67121948  1.0000
  O   O7        1.0  0.9212194699999997  0.92121947  0.3287805699999998  1.0000
  O   O8        1.0  0.32878063999999974  0.3287805500000001  0.9212194400000001  1.0000
  O   O9        1.0  0.9212195299999998  0.3287804400000001  0.92121954  1.0000
  O   O10       1.0  0.3287804600000001  0.9212195500000001  0.3287805099999999  1.0000
  O   O11       1.0  0.32878049999999986  0.9212194999999999  0.9212195199999998  1.0000
  O   O12       1.0  0.9212194899999999  0.3287805  0.32878062  1.0000
  O   O13       1.0  0.62499995  0.62499994  0.6250000399999998  1.0000
  O   O14       1.0  0.37499994999999997  0.37499995  0.37500007  1.0000
  Ti  Ti1       1.0  0.49999992999999976  4.899999998976616e-07  0.9999996800000001  1.0000
  Ti  Ti2       1.0  5.299999999521072e-07  0.4999998800000001  0.9999998899999999  1.0000
  Ti  Ti3       1.0  0.9999997899999999  1.0000000001656998e-07  0.50000028  1.0000
  Ti  Ti4       1.0  1.0000000069455666e-08  0.99999985  0.9999998799999998  1.0000
  Y   Y1        1.0  0.9999999199999999  0.5000000199999998  0.5000000700000002  1.0000
  Y   Y2        1.0  0.4999999799999999  0.9999999100000001  0.50000002  1.0000
  Y   Y3        1.0  0.5000001  0.4999999999999999  7.00000001e-08  1.0000
  Y   Y4        1.0  0.49999999999999983  0.5000000900000001  0.4999998500000001  1.0000
