data_image0
_chemical_formula_structural       Nb8Sr8O28
_chemical_formula_sum              "Nb8 Sr8 O28"
_cell_length_a       8.032718318490762
_cell_length_b       13.999365577554077
_cell_length_c       5.788699764000024
_cell_angle_alpha    89.99999157054384
_cell_angle_beta     89.99999514980384
_cell_angle_gamma    98.25838685845049

_space_group_name_H-M_alt    "P 1"
_space_group_IT_number       1

loop_
  _space_group_symop_operation_xyz
  'x, y, z'

loop_
  _atom_site_type_symbol
  _atom_site_label
  _atom_site_symmetry_multiplicity
  _atom_site_fract_x
  _atom_site_fract_y
  _atom_site_fract_z
  _atom_site_occupancy
  Nb  Nb1       1.0  0.47361563999999984  0.8895397399999999  0.26561698  1.0000
  Nb  Nb2       1.0  0.5263848499999999  0.11046014000000001  0.76561774  1.0000
  Nb  Nb3       1.0  0.41864533  0.6803162500000001  0.7739835700000001  1.0000
  Nb  Nb4       1.0  0.5813535  0.31968394  0.27398606  1.0000
  Nb  Nb5       1.0  0.9715021099999999  0.8898155999999999  0.26620346  1.0000
  Nb  Nb6       1.0  0.02849826  0.11018347  0.76620285  1.0000
  Nb  Nb7       1.0  0.9205328799999999  0.6807620999999998  0.77391627  1.0000
  Nb  Nb8       1.0  0.07946566000000001  0.31923748999999996  0.27391537999999993  1.0000
  Sr  Sr1       1.0  0.22398145999999994  0.89762654  0.76373103  1.0000
  Sr  Sr2       1.0  0.77601903  0.10237486  0.26373225  1.0000
  Sr  Sr3       1.0  0.14248495  0.5719639799999999  0.3053121400000001  1.0000
  Sr  Sr4       1.0  0.8575162699999999  0.42803598999999987  0.8053137300000001  1.0000
  Sr  Sr5       1.0  0.7221760699999997  0.8902306699999999  0.76297137  1.0000
  Sr  Sr6       1.0  0.27782451  0.10977062  0.2629712  1.0000
  Sr  Sr7       1.0  0.6430053999999998  0.57773543  0.26791589  1.0000
  Sr  Sr8       1.0  0.35699415000000007  0.4222641  0.7679190199999999  1.0000
  O   O1        1.0  0.52503089  0.9911904799999998  0.5270139700000002  1.0000
  O   O2        1.0  0.47496871  0.008809300000000003  0.02701384  1.0000
  O   O3        1.0  0.47558291  0.7911010399999998  0.49528475000000005  1.0000
  O   O4        1.0  0.52441721  0.20889885999999994  0.9952842599999999  1.0000
  O   O5        1.0  0.40631462  0.5790770899999999  0.54764993  1.0000
  O   O6        1.0  0.5936855899999999  0.4209225299999999  0.04765032999999999  1.0000
  O   O7        1.0  0.22597732999999992  0.9033107599999998  0.30911960999999993  1.0000
  O   O8        1.0  0.7740223099999999  0.09668917000000002  0.8091194499999999  1.0000
  O   O9        1.0  0.17529459  0.7015518599999999  0.7212549999999999  1.0000
  O   O10       1.0  0.8247050299999998  0.29844820000000005  0.22125505999999998  1.0000
  O   O11       1.0  0.43525815999999984  0.8102690999999999  0.9829163400000002  1.0000
  O   O12       1.0  0.56474128  0.18973086999999994  0.48291591999999994  1.0000
  O   O13       1.0  0.3832997299999999  0.5950675299999998  0.02620042  1.0000
  O   O14       1.0  0.61670069  0.4049330099999999  0.52620168  1.0000
  O   O15       1.0  0.97060515  0.9927563799999999  0.52512565  1.0000
  O   O16       1.0  0.02939476  0.007243710000000001  0.02512585  1.0000
  O   O17       1.0  0.92134997  0.7931598599999998  0.50139819  1.0000
  O   O18       1.0  0.07864989  0.2068395699999999  0.00139689  1.0000
  O   O19       1.0  0.8828625599999999  0.5820711  0.5463919700000001  1.0000
  O   O20       1.0  0.11713770000000001  0.41792884999999996  0.04639102  1.0000
  O   O21       1.0  0.72752957  0.9094605699999999  0.20818798  1.0000
  O   O22       1.0  0.27247057  0.09053927000000002  0.70818735  1.0000
  O   O23       1.0  0.67468963  0.69966675  0.8080273600000001  1.0000
  O   O24       1.0  0.3253104999999999  0.30033319999999997  0.3080257  1.0000
  O   O25       1.0  0.9701428699999999  0.8086697299999999  0.98805869  1.0000
  O   O26       1.0  0.029857539999999995  0.19133087  0.48805892  1.0000
  O   O27       1.0  0.9121228799999999  0.59188166  0.02411804  1.0000
  O   O28       1.0  0.08787730000000002  0.40811779  0.5241168699999998  1.0000
