data_image0
_chemical_formula_structural       Al2O6Y2
_chemical_formula_sum              "Al2 O6 Y2"
_cell_length_a       3.5310616560000128
_cell_length_b       3.5310569596850967
_cell_length_c       11.481072127000006
_cell_angle_alpha    89.99999975869359
_cell_angle_beta     89.99999903707362
_cell_angle_gamma    120.00005431882636

_space_group_name_H-M_alt    "P 1"
_space_group_IT_number       1

loop_
  _space_group_symop_operation_xyz
  'x, y, z'

loop_
  _atom_site_type_symbol
  _atom_site_label
  _atom_site_symmetry_multiplicity
  _atom_site_fract_x
  _atom_site_fract_y
  _atom_site_fract_z
  _atom_site_occupancy
  Al  Al1       1.0  0.33333158999999996  0.6666635699999999  0.25000032000000005  1.0000
  Al  Al2       1.0  0.66666841  0.33333643  0.7499996800000001  1.0000
  O   O1        1.0  0.9999988299999997  0.9999980999999998  0.24999996999999996  1.0000
  O   O2        1.0  1.1699999999999998e-06  1.9099999999999995e-06  0.7500000300000002  1.0000
  O   O3        1.0  0.3333331499999999  0.6666664899999998  0.40773103999999993  1.0000
  O   O4        1.0  0.6666668499999998  0.3333335199999998  0.5922689600000001  1.0000
  O   O5        1.0  0.6666668499999998  0.3333335199999998  0.9077313399999999  1.0000
  O   O6        1.0  0.3333331499999999  0.6666664799999998  0.09226865999999999  1.0000
  Y   Y1        1.0  0.9999999999999998  1.0000000000000002e-08  0.49999999999999994  1.0000
  Y   Y2        1.0  -1.886497262496658e-16  0.9999999999999997  0.9999999999999999  1.0000
