data_image0
_chemical_formula_structural       Nb8Co4O24
_chemical_formula_sum              "Nb8 Co4 O24"
_cell_length_a       14.339695194515276
_cell_length_b       5.826108851298918
_cell_length_c       5.15433454750904
_cell_angle_alpha    89.99976429744095
_cell_angle_beta     90.00006032317675
_cell_angle_gamma    89.99940696888332

_space_group_name_H-M_alt    "P 1"
_space_group_IT_number       1

loop_
  _space_group_symop_operation_xyz
  'x, y, z'

loop_
  _atom_site_type_symbol
  _atom_site_label
  _atom_site_symmetry_multiplicity
  _atom_site_fract_x
  _atom_site_fract_y
  _atom_site_fract_z
  _atom_site_occupancy
  Nb  Nb1       1.0  0.15954453  0.67661056  0.25196639  1.0000
  Nb  Nb2       1.0  0.3404444999999999  0.8232804200000001  0.75197546  1.0000
  Nb  Nb3       1.0  0.65954238  0.82339432  0.7480357  1.0000
  Nb  Nb4       1.0  0.8404434600000001  0.6767137900000001  0.24803054  1.0000
  Nb  Nb5       1.0  0.84045592  0.32338945  0.74803413  1.0000
  Nb  Nb6       1.0  0.6595558700000002  0.1767198600000001  0.24802551999999997  1.0000
  Nb  Nb7       1.0  0.34045809999999993  0.17660562999999999  0.25196472  1.0000
  Nb  Nb8       1.0  0.15955711  0.32328634  0.7519697700000001  1.0000
  Co  Co1       1.0  0.99999978  0.84627883  0.74999701  1.0000
  Co  Co2       1.0  0.49999724999999995  0.6537237799999999  0.25000022  1.0000
  Co  Co3       1.0  9e-07  0.15372145  0.25000275  1.0000
  Co  Co4       1.0  0.50000276  0.3462765099999999  0.74999909  1.0000
  O   O1        1.0  0.09483784999999999  0.6086080100000001  0.9232691400000002  1.0000
  O   O2        1.0  0.40516103999999986  0.8912896199999997  0.42327604  1.0000
  O   O3        1.0  0.5948327  0.89140779  0.07672462  1.0000
  O   O4        1.0  0.9051614299999999  0.60870077  0.5767280400000001  1.0000
  O   O5        1.0  0.9051626599999999  0.3913917  0.07673103  1.0000
  O   O6        1.0  0.5948392099999998  0.10871066  0.57672425  1.0000
  O   O7        1.0  0.4051675200000001  0.10859219999999999  0.92327563  1.0000
  O   O8        1.0  0.09483912  0.3912994300000001  0.42327228999999994  1.0000
  O   O9        1.0  0.07782665  0.8813424  0.40997548999999994  1.0000
  O   O10       1.0  0.42216588  0.61855833  0.9099921900000001  1.0000
  O   O11       1.0  0.57782052  0.6186738999999999  0.59002702  1.0000
  O   O12       1.0  0.9221721600000001  0.88141605  0.09001567  1.0000
  O   O13       1.0  0.92217408  0.11865829  0.59002426  1.0000
  O   O14       1.0  0.57783408  0.38144105999999994  0.09000757  1.0000
  O   O15       1.0  0.42217957999999994  0.38132707999999993  0.40997291999999996  1.0000
  O   O16       1.0  0.07782859999999998  0.11858302  0.90998425  1.0000
  O   O17       1.0  0.2560895500000001  0.87732157  0.08081411  1.0000
  O   O18       1.0  0.24391010999999999  0.6225600499999999  0.58081287  1.0000
  O   O19       1.0  0.75608837  0.6226806099999999  0.91918703  1.0000
  O   O20       1.0  0.74390802  0.87743836  0.41918410000000006  1.0000
  O   O21       1.0  0.7439107600000001  0.12267851  0.91918615  1.0000
  O   O22       1.0  0.7560902400000001  0.37744023  0.41918728000000005  1.0000
  O   O23       1.0  0.24391202  0.37731932000000007  0.08081321  1.0000
  O   O24       1.0  0.25609236  0.12256185999999998  0.5808162900000001  1.0000
