data_image0
_chemical_formula_structural       Sr4Fe4O10
_chemical_formula_sum              "Sr4 Fe4 O10"
_cell_length_a       5.567190581666374
_cell_length_b       5.735779944217562
_cell_length_c       8.835742521207658
_cell_angle_alpha    108.94029719253672
_cell_angle_beta     108.47180637985086
_cell_angle_gamma    90.00082380541446

_space_group_name_H-M_alt    "P 1"
_space_group_IT_number       1

loop_
  _space_group_symop_operation_xyz
  'x, y, z'

loop_
  _atom_site_type_symbol
  _atom_site_label
  _atom_site_symmetry_multiplicity
  _atom_site_fract_x
  _atom_site_fract_y
  _atom_site_fract_z
  _atom_site_occupancy
  Sr  Sr1       1.0  0.11289722999999999  0.6245365999999999  0.21844480999999996  1.0000
  Sr  Sr2       1.0  0.6128964899999999  0.09391524999999998  0.21844269999999996  1.0000
  Sr  Sr3       1.0  0.8951206899999998  0.37214888000000007  0.7816383699999998  1.0000
  Sr  Sr4       1.0  0.3951347099999998  0.9094729300000001  0.7816364899999998  1.0000
  Fe  Fe1       1.0  0.5057640399999999  0.5083322899999999  0.013119529999999999  1.0000
  Fe  Fe2       1.0  0.0057775499999999985  0.004810269999999999  0.013145129999999998  1.0000
  Fe  Fe3       1.0  0.7894540300000001  0.6807312  0.4985825999999998  1.0000
  Fe  Fe4       1.0  0.2894526599999999  0.31782702  0.4985816  1.0000
  O   O1        1.0  0.24323723999999983  0.74522479  0.9849686299999998  1.0000
  O   O2        1.0  0.7432408799999999  0.7397526599999998  0.9849697299999999  1.0000
  O   O3        1.0  0.25954417  0.25660904  0.01797799  1.0000
  O   O4        1.0  0.7595506799999999  0.26136707  0.01798721  1.0000
  O   O5        1.0  0.6255441899999999  0.68685412  0.27627323  1.0000
  O   O6        1.0  0.12554153999999998  0.08943105999999998  0.2762591999999999  1.0000
  O   O7        1.0  0.3335293999999999  0.29836751000000006  0.7108548299999999  1.0000
  O   O8        1.0  0.8334612899999999  0.9125015899999998  0.7108201899999999  1.0000
  O   O9        1.0  0.12402279999999997  0.60933835  0.49814713999999993  1.0000
  O   O10       1.0  0.6240238999999999  0.38877886999999994  0.49814706999999997  1.0000
