data_image0
_chemical_formula_structural       Co4Ba8O16
_chemical_formula_sum              "Co4 Ba8 O16"
_cell_length_a       6.112495373965257
_cell_length_b       7.694790052366753
_cell_length_c       10.52615099443703
_cell_angle_alpha    89.96394943083851
_cell_angle_beta     93.25702756232683
_cell_angle_gamma    90.05018841132484

_space_group_name_H-M_alt    "P 1"
_space_group_IT_number       1

loop_
  _space_group_symop_operation_xyz
  'x, y, z'

loop_
  _atom_site_type_symbol
  _atom_site_label
  _atom_site_symmetry_multiplicity
  _atom_site_fract_x
  _atom_site_fract_y
  _atom_site_fract_z
  _atom_site_occupancy
  Co  Co1       1.0  0.75651067  0.7765873100000001  0.41791179  1.0000
  Co  Co2       1.0  0.25662296  0.72332149  0.9177261599999998  1.0000
  Co  Co3       1.0  0.24359318  0.22318478  0.5821121  1.0000
  Co  Co4       1.0  0.74323034  0.2770752000000001  0.08210113  1.0000
  Ba  Ba1       1.0  0.73812714  0.34739906  0.42155809  1.0000
  Ba  Ba2       1.0  0.23792525  0.15273440000000002  0.9217016199999999  1.0000
  Ba  Ba3       1.0  0.261949  0.6522283000000001  0.57842968  1.0000
  Ba  Ba4       1.0  0.7621900999999999  0.8475529700000001  0.07840683  1.0000
  Ba  Ba5       1.0  0.2736601  0.9990887700000001  0.30801796  1.0000
  Ba  Ba6       1.0  0.7737954  0.5008715399999999  0.8078780299999999  1.0000
  Ba  Ba7       1.0  0.7262507600000001  0.0007608300000000002  0.69219593  1.0000
  Ba  Ba8       1.0  0.2263529  0.4992267500000001  0.19205464  1.0000
  O   O1        1.0  0.7145566100000001  0.005521060000000001  0.4279653199999999  1.0000
  O   O2        1.0  0.21424106  0.49437990000000004  0.92762032  1.0000
  O   O3        1.0  0.28565918  0.99432927  0.57203466  1.0000
  O   O4        1.0  0.7849565500000001  0.5061031400000002  0.07193782  1.0000
  O   O5        1.0  0.9771960200000002  0.7288527500000002  0.31703136  1.0000
  O   O6        1.0  0.47703116  0.77055668  0.8164927899999999  1.0000
  O   O7        1.0  0.023121550000000008  0.27082301  0.68312185  1.0000
  O   O8        1.0  0.5224188  0.22951165000000004  0.18308348  1.0000
  O   O9        1.0  0.50272149  0.6708115299999999  0.36303088  1.0000
  O   O10       1.0  0.0029629399999999894  0.8290807700000001  0.86288411  1.0000
  O   O11       1.0  0.4973259500000001  0.32866374  0.6373179  1.0000
  O   O12       1.0  0.9967958500000003  0.17168343000000003  0.13749897  1.0000
  O   O13       1.0  0.82061403  0.6809472900000001  0.57449836  1.0000
  O   O14       1.0  0.32114822  0.8183098600000001  0.07448335999999998  1.0000
  O   O15       1.0  0.17986595  0.31872044  0.42548768  1.0000
  O   O16       1.0  0.6791768800000001  0.18167476  0.9254689400000001  1.0000
