data_image0
_chemical_formula_structural       Sr14Mn8O26
_chemical_formula_sum              "Sr14 Mn8 O26"
_cell_length_a       6.923546969480693
_cell_length_b       9.943910252098666
_cell_length_c       10.240471924022662
_cell_angle_alpha    89.9248667674073
_cell_angle_beta     94.13238741914564
_cell_angle_gamma    90.02233843529143

_space_group_name_H-M_alt    "P 1"
_space_group_IT_number       1

loop_
  _space_group_symop_operation_xyz
  'x, y, z'

loop_
  _atom_site_type_symbol
  _atom_site_label
  _atom_site_symmetry_multiplicity
  _atom_site_fract_x
  _atom_site_fract_y
  _atom_site_fract_z
  _atom_site_occupancy
  Sr  Sr1       1.0  0.005159720000000004  0.3223704  0.9608870300000001  1.0000
  Sr  Sr2       1.0  0.9941720200000003  0.8224587599999998  0.5384024700000001  1.0000
  Sr  Sr3       1.0  0.9943168300000002  0.6776719799999998  0.03852061  1.0000
  Sr  Sr4       1.0  0.0052941199999999985  0.17746207  0.46103250000000007  1.0000
  Sr  Sr5       1.0  0.33672219  0.35755914000000005  0.69729936  1.0000
  Sr  Sr6       1.0  0.66381975  0.8582553899999997  0.8028325400000003  1.0000
  Sr  Sr7       1.0  0.6637747300000001  0.6415062699999998  0.30275817  1.0000
  Sr  Sr8       1.0  0.33660931999999993  0.14270607  0.19738693  1.0000
  Sr  Sr9       1.0  0.49888750000000004  0.50004944  0.00028126  1.0000
  Sr  Sr10      1.0  0.4987707500000001  0.9999227199999999  0.50033032  1.0000
  Sr  Sr11      1.0  0.16480410999999998  0.49124367  0.34224743  1.0000
  Sr  Sr12      1.0  0.8373230100000002  0.9922006899999998  0.15815009999999996  1.0000
  Sr  Sr13      1.0  0.8363759900000001  0.50765311  0.65765213  1.0000
  Sr  Sr14      1.0  0.16391108999999998  0.00879496  0.8417735000000001  1.0000
  Mn  Mn1       1.0  0.5745699900000001  0.33435368000000004  0.4210561199999999  1.0000
  Mn  Mn2       1.0  0.42827625  0.83732357  0.08041838  1.0000
  Mn  Mn3       1.0  0.42784358000000006  0.66365629  0.58064176  1.0000
  Mn  Mn4       1.0  0.5741151800000001  0.16480491  0.9213470000000001  1.0000
  Mn  Mn5       1.0  0.7700202500000001  0.32444151  0.2194912  1.0000
  Mn  Mn6       1.0  0.22816507999999996  0.8248738199999998  0.27870081  1.0000
  Mn  Mn7       1.0  0.22796743000000008  0.6752173699999999  0.77887488  1.0000
  Mn  Mn8       1.0  0.76976222  0.17537620000000004  0.71965556  1.0000
  O   O1        1.0  0.5044686400000001  0.3944946599999999  0.22630897  1.0000
  O   O2        1.0  0.4944685900000001  0.8937965500000002  0.27636588  1.0000
  O   O3        1.0  0.49434814  0.6062784099999999  0.7761891000000001  1.0000
  O   O4        1.0  0.5042512  0.10555298000000002  0.72620942  1.0000
  O   O5        1.0  0.6722677000000001  0.32595926  0.8308076700000001  1.0000
  O   O6        1.0  0.32751008  0.82653981  0.66827327  1.0000
  O   O7        1.0  0.3280696799999999  0.6743356300000001  0.16811027  1.0000
  O   O8        1.0  0.672894  0.17325348  0.3306144  1.0000
  O   O9        1.0  0.8402540100000001  0.40878545999999993  0.41502882  1.0000
  O   O10       1.0  0.16071744  0.9097415099999999  0.08327437  1.0000
  O   O11       1.0  0.16083774  0.5907387699999997  0.5832894300000001  1.0000
  O   O12       1.0  0.8402613199999999  0.09085849  0.91511846  1.0000
  O   O13       1.0  0.3388881100000001  0.25290216  0.45565865  1.0000
  O   O14       1.0  0.6630727700000002  0.7556263099999999  0.04478339  1.0000
  O   O15       1.0  0.6628118200000002  0.74467545  0.54496327  1.0000
  O   O16       1.0  0.33876693  0.2468282999999999  0.95601047  1.0000
  O   O17       1.0  0.8445159200000001  0.47166356  0.11887922  1.0000
  O   O18       1.0  0.15155456  0.97180235  0.3788813400000001  1.0000
  O   O19       1.0  0.15176238999999997  0.5282268000000001  0.87928985  1.0000
  O   O20       1.0  0.8446765200000002  0.028210760000000005  0.61939772  1.0000
  O   O21       1.0  0.0019229700000000021  0.22715662  0.1968566  1.0000
  O   O22       1.0  0.9981903900000001  0.7255812199999999  0.30242395  1.0000
  O   O23       1.0  0.9980959700000004  0.7743755700000001  0.8025255000000001  1.0000
  O   O24       1.0  0.0017235099999999848  0.27292372  0.6968906300000001  1.0000
  O   O25       1.0  0.5015618299999999  0.49812582000000005  0.50224521  1.0000
  O   O26       1.0  0.5014439800000001  0.0016641200000000003  0.0018179100000000003  1.0000
