data_image0
_chemical_formula_structural       O16Sr4Y8
_chemical_formula_sum              "O16 Sr4 Y8"
_cell_length_a       10.27535930100006
_cell_length_b       12.178266963000068
_cell_length_c       3.469685847000002
_cell_angle_alpha    90.00000033739273
_cell_angle_beta     90.00000010147403
_cell_angle_gamma    90.00000004237414

_space_group_name_H-M_alt    "P 1"
_space_group_IT_number       1

loop_
  _space_group_symop_operation_xyz
  'x, y, z'

loop_
  _atom_site_type_symbol
  _atom_site_label
  _atom_site_symmetry_multiplicity
  _atom_site_fract_x
  _atom_site_fract_y
  _atom_site_fract_z
  _atom_site_occupancy
  O   O1        1.0  0.7109276599999999  0.32444855  0.25000001  1.0000
  O   O2        1.0  0.2109276599999999  0.17555144999999986  0.24999999999999997  1.0000
  O   O3        1.0  0.2890723299999999  0.6755514499999998  0.7499999999999999  1.0000
  O   O4        1.0  0.7890723399999998  0.8244485499999996  0.7500000099999999  1.0000
  O   O5        1.0  0.6261127799999999  0.020397609999999997  0.24999999999999997  1.0000
  O   O6        1.0  0.12611278  0.47960237999999983  0.24999999999999997  1.0000
  O   O7        1.0  0.37388721999999985  0.9796024  0.75  1.0000
  O   O8        1.0  0.87388721  0.5203975999999999  0.75  1.0000
  O   O9        1.0  0.01301405  0.71496942  0.24999998999999998  1.0000
  O   O10       1.0  0.5130140499999999  0.7850305799999999  0.25000001  1.0000
  O   O11       1.0  0.9869859299999998  0.28503056  0.75  1.0000
  O   O12       1.0  0.48698593  0.21496944  0.74999999  1.0000
  O   O13       1.0  0.9227276199999999  0.07760922  0.24999999999999997  1.0000
  O   O14       1.0  0.42272762  0.42239077999999997  0.24999999999999997  1.0000
  O   O15       1.0  0.07727239  0.92239077  0.74999999  1.0000
  O   O16       1.0  0.5772723899999999  0.5776092299999999  0.75  1.0000
  Sr  Sr1       1.0  0.25447751  0.8515729399999998  0.24999998999999998  1.0000
  Sr  Sr2       1.0  0.7544774999999999  0.6484270599999999  0.24999999999999997  1.0000
  Sr  Sr3       1.0  0.7455225099999998  0.14842706  0.75  1.0000
  Sr  Sr4       1.0  0.2455225099999999  0.35157293999999983  0.75  1.0000
  Y   Y1        1.0  0.9218951899999999  0.38995493999999997  0.24999998999999998  1.0000
  Y   Y2        1.0  0.4218951899999999  0.11004506  0.24999999999999997  1.0000
  Y   Y3        1.0  0.07810481  0.6100450499999999  0.75  1.0000
  Y   Y4        1.0  0.57810481  0.8899549499999999  0.75  1.0000
  Y   Y5        1.0  0.9247944699999999  0.88676754  0.24999999999999997  1.0000
  Y   Y6        1.0  0.42479447  0.6132324699999998  0.24999999999999997  1.0000
  Y   Y7        1.0  0.07520554  0.11323245999999998  0.7499999999999999  1.0000
  Y   Y8        1.0  0.5752055399999999  0.3867675400000001  0.75  1.0000
