data_image0
_chemical_formula_structural       Mn10Ba12O32
_chemical_formula_sum              "Mn10 Ba12 O32"
_cell_length_a       5.793772683846823
_cell_length_b       7.2379460212453655
_cell_length_c       20.499981033287494
_cell_angle_alpha    90.01748880489221
_cell_angle_beta     90.00077774600308
_cell_angle_gamma    113.59328898801769

_space_group_name_H-M_alt    "P 1"
_space_group_IT_number       1

loop_
  _space_group_symop_operation_xyz
  'x, y, z'

loop_
  _atom_site_type_symbol
  _atom_site_label
  _atom_site_symmetry_multiplicity
  _atom_site_fract_x
  _atom_site_fract_y
  _atom_site_fract_z
  _atom_site_occupancy
  Mn  Mn1       1.0  0.7549390999999999  0.5099008600000001  0.18896781  1.0000
  Mn  Mn2       1.0  0.24660637  0.49318367  0.8109467199999999  1.0000
  Mn  Mn3       1.0  0.7460138199999999  0.49201546000000007  0.68842941  1.0000
  Mn  Mn4       1.0  0.25501331000000005  0.5100372100000004  0.31109347  1.0000
  Mn  Mn5       1.0  0.99986472  0.9997321500000003  0.00018667  1.0000
  Mn  Mn6       1.0  0.50014679  0.00030227999999999993  0.49985578999999997  1.0000
  Mn  Mn7       1.0  0.87922561  0.7584746600000003  0.09325979  1.0000
  Mn  Mn8       1.0  0.12041990000000001  0.24081431000000003  0.90710754  1.0000
  Mn  Mn9       1.0  0.62068977  0.24139509  0.59301586  1.0000
  Mn  Mn10      1.0  0.3794252900000001  0.7588500500000002  0.40679522  1.0000
  Ba  Ba1       1.0  0.62386952  0.24774815000000003  0.3344018  1.0000
  Ba  Ba2       1.0  0.3766680500000001  0.7533274600000002  0.66481684  1.0000
  Ba  Ba3       1.0  0.8765942099999999  0.7531623400000002  0.8350377100000002  1.0000
  Ba  Ba4       1.0  0.12376116999999999  0.2475434900000001  0.16552846  1.0000
  Ba  Ba5       1.0  0.91573958  0.83149224  0.32195179  1.0000
  Ba  Ba6       1.0  0.08494982  0.16989563000000002  0.67839906  1.0000
  Ba  Ba7       1.0  0.58509049  0.17016143  0.82183259  1.0000
  Ba  Ba8       1.0  0.41564491  0.8313134700000001  0.17805507  1.0000
  Ba  Ba9       1.0  0.64451623  0.28903884  0.02370997  1.0000
  Ba  Ba10      1.0  0.35478831000000016  0.7095658700000003  0.9771385999999999  1.0000
  Ba  Ba11      1.0  0.8550204999999999  0.7100457600000001  0.52278938  1.0000
  Ba  Ba12      1.0  0.14480697000000012  0.28961727000000004  0.4763071  1.0000
  O   O1        1.0  0.51246888  0.5249886100000001  0.25005144  1.0000
  O   O2        1.0  0.9856326799999997  0.47104173000000005  0.74994409  1.0000
  O   O3        1.0  0.4855186100000001  0.47105327000000013  0.74996229  1.0000
  O   O4        1.0  0.012502150000000153  0.5249904700000002  0.25005168  1.0000
  O   O5        1.0  0.6160007799999999  0.23203175000000004  0.18627897  1.0000
  O   O6        1.0  0.3846303600000003  0.7692509900000003  0.8130872099999997  1.0000
  O   O7        1.0  0.8842786  0.7685389800000001  0.68673538  1.0000
  O   O8        1.0  0.11609577  0.23222038000000003  0.31385994  1.0000
  O   O9        1.0  0.91225172  0.82449085  0.18400971  1.0000
  O   O10       1.0  0.08719165  0.1743742400000001  0.8166094399999999  1.0000
  O   O11       1.0  0.5875911599999999  0.17522169000000004  0.68338929  1.0000
  O   O12       1.0  0.4123586100000001  0.82470161  0.3160706  1.0000
  O   O13       1.0  0.8534772399999998  0.7070559100000001  0.9998189  1.0000
  O   O14       1.0  0.14614174  0.29223988  0.00074139  1.0000
  O   O15       1.0  0.6463257699999999  0.29262847  0.49942388  1.0000
  O   O16       1.0  0.3537864900000001  0.70764081  0.50024616  1.0000
  O   O17       1.0  0.7588634700000001  0.9644502100000002  0.06901461  1.0000
  O   O18       1.0  0.7938432099999999  0.03461403  0.9314861799999999  1.0000
  O   O19       1.0  0.2943284099999999  0.03525829  0.56862921  1.0000
  O   O20       1.0  0.25905649000000014  0.9648978600000002  0.4310747100000001  1.0000
  O   O21       1.0  0.24075432999999996  0.03458395000000001  0.9314851800000001  1.0000
  O   O22       1.0  0.20558303000000017  0.9644003500000002  0.06900799  1.0000
  O   O23       1.0  0.70585675  0.9648681100000001  0.43108739  1.0000
  O   O24       1.0  0.7408785799999997  0.03523686  0.56864099  1.0000
  O   O25       1.0  0.49147561  0.55067165  0.38400414  1.0000
  O   O26       1.0  0.9413419699999999  0.45017333000000004  0.61570303  1.0000
  O   O27       1.0  0.44056687999999994  0.4496601700000001  0.88402757  1.0000
  O   O28       1.0  0.9912220399999999  0.55027991  0.11609553  1.0000
  O   O29       1.0  0.50882786  0.4501853100000001  0.61570521  1.0000
  O   O30       1.0  0.05919614000000015  0.5506731500000001  0.38400224  1.0000
  O   O31       1.0  0.55902779  0.55029216  0.11609829  1.0000
  O   O32       1.0  0.009128200000000053  0.4496691400000001  0.88402223  1.0000
