data_image0
_chemical_formula_structural       Mn6O8
_chemical_formula_sum              "Mn6 O8"
_cell_length_a       6.299555242904048
_cell_length_b       6.326625584741242
_cell_length_c       5.847627656829767
_cell_angle_alpha    62.17558958442185
_cell_angle_beta     62.64573720510434
_cell_angle_gamma    55.17868616442667

_space_group_name_H-M_alt    "P 1"
_space_group_IT_number       1

loop_
  _space_group_symop_operation_xyz
  'x, y, z'

loop_
  _atom_site_type_symbol
  _atom_site_label
  _atom_site_symmetry_multiplicity
  _atom_site_fract_x
  _atom_site_fract_y
  _atom_site_fract_z
  _atom_site_occupancy
  Mn  Mn1       1.0  0.62423611  0.6271643199999999  0.1267008999999999  1.0000
  Mn  Mn2       1.0  0.6228357599999998  0.6257639  0.62810127  1.0000
  Mn  Mn3       1.0  0.62810134  0.12329912000000001  0.62283574  1.0000
  Mn  Mn4       1.0  0.12670091000000006  0.6218986999999999  0.6242361899999997  1.0000
  Mn  Mn5       1.0  0.9988335899999997  0.0011666000000000892  0.9988336300000001  1.0000
  Mn  Mn6       1.0  0.24883356999999995  0.25116633  0.2488336899999999  1.0000
  O   O1        1.0  0.8702225599999998  0.8649722500000002  0.8534101099999998  1.0000
  O   O2        1.0  0.8680271199999997  0.8666935099999998  0.40856975999999995  1.0000
  O   O3        1.0  0.8534099500000002  0.4113953100000001  0.8702225499999999  1.0000
  O   O4        1.0  0.40856990999999976  0.8567097200000003  0.8680269599999998  1.0000
  O   O5        1.0  0.83860484  0.39659009000000006  0.3850277499999999  1.0000
  O   O6        1.0  0.3932902299999998  0.84143012  0.38330668  1.0000
  O   O7        1.0  0.3850277199999999  0.37977728000000016  0.8386049599999997  1.0000
  O   O8        1.0  0.38330669999999983  0.38197305  0.39329012  1.0000
