data_image0
_chemical_formula_structural       Fe4Mg2O8
_chemical_formula_sum              "Fe4 Mg2 O8"
_cell_length_a       5.96477555379597
_cell_length_b       5.964782359502599
_cell_length_c       5.963352452122108
_cell_angle_alpha    60.00784282902639
_cell_angle_beta     60.00785247062971
_cell_angle_gamma    60.19131437665046

_space_group_name_H-M_alt    "P 1"
_space_group_IT_number       1

loop_
  _space_group_symop_operation_xyz
  'x, y, z'

loop_
  _atom_site_type_symbol
  _atom_site_label
  _atom_site_symmetry_multiplicity
  _atom_site_fract_x
  _atom_site_fract_y
  _atom_site_fract_z
  _atom_site_occupancy
  Fe  Fe1       1.0  0.9942088500000004  0.9942097800000002  0.0057903999999997  1.0000
  Fe  Fe2       1.0  0.25579107000000023  0.2557901400000001  0.2442097299999999  1.0000
  Fe  Fe3       1.0  0.6250000300000003  0.6250000300000002  0.1250000499999999  1.0000
  Fe  Fe4       1.0  0.6250000200000001  0.6250000200000001  0.6249999799999999  1.0000
  Mg  Mg1       1.0  0.6250000000000002  0.12500013  0.62499998  1.0000
  Mg  Mg2       1.0  0.12500013000000026  0.625  0.62499998  1.0000
  O   O1        1.0  0.8625767800000003  0.8625764500000003  0.87872874  1.0000
  O   O2        1.0  0.86257643  0.8625765900000001  0.39611763000000005  1.0000
  O   O3        1.0  0.38742369000000026  0.38742353  0.8538821300000002  1.0000
  O   O4        1.0  0.38742336000000016  0.38742369000000004  0.37127145  1.0000
  O   O5        1.0  0.8630276100000003  0.3887697200000002  0.87410102  1.0000
  O   O6        1.0  0.38877048000000014  0.8630273200000002  0.8741014299999997  1.0000
  O   O7        1.0  0.86122937  0.3869727700000001  0.37589869  1.0000
  O   O8        1.0  0.3869724900000003  0.86123013  0.3758991  1.0000
