data_image0
_chemical_formula_structural       Ca4Ti2Mn2O12
_chemical_formula_sum              "Ca4 Ti2 Mn2 O12"
_cell_length_a       5.359982835834473
_cell_length_b       5.434863760000002
_cell_length_c       7.613302054727099
_cell_angle_alpha    89.99999691957586
_cell_angle_beta     90.09749720072544
_cell_angle_gamma    90.00000008646573

_space_group_name_H-M_alt    "P 1"
_space_group_IT_number       1

loop_
  _space_group_symop_operation_xyz
  'x, y, z'

loop_
  _atom_site_type_symbol
  _atom_site_label
  _atom_site_symmetry_multiplicity
  _atom_site_fract_x
  _atom_site_fract_y
  _atom_site_fract_z
  _atom_site_occupancy
  Ca  Ca1       1.0  0.50845201  0.4583419099999999  0.7494158399999999  1.0000
  Ca  Ca2       1.0  0.9915479999999999  0.9583418699999999  0.7505840999999999  1.0000
  Ca  Ca3       1.0  0.49154807999999983  0.5416581399999999  0.25058415999999994  1.0000
  Ca  Ca4       1.0  0.00845192  0.04165809  0.24941588999999997  1.0000
  Ti  Ti1       1.0  0.50000009  0.99999995  0.0  1.0000
  Ti  Ti2       1.0  0.9999999299999999  0.5000000299999999  0.50000004  1.0000
  Mn  Mn1       1.0  0.9999998799999998  0.50000003  0.9999999399999999  1.0000
  Mn  Mn2       1.0  0.50000011  0.9999999299999998  0.49999997999999996  1.0000
  O   O1        1.0  0.20607462  0.7861590399999998  0.03894923  1.0000
  O   O2        1.0  0.2939252  0.2861590199999999  0.4610507099999999  1.0000
  O   O3        1.0  0.7939254099999999  0.21384097  0.9610507799999999  1.0000
  O   O4        1.0  0.7060747699999999  0.7138410099999999  0.53894926  1.0000
  O   O5        1.0  0.28639833  0.29204104  0.03955448999999999  1.0000
  O   O6        1.0  0.21360170999999997  0.79204087  0.46044548999999996  1.0000
  O   O7        1.0  0.71360169  0.7079589499999999  0.9604455299999999  1.0000
  O   O8        1.0  0.78639828  0.20795915  0.5395545  1.0000
  O   O9        1.0  0.42466903999999994  0.01752248  0.74645809  1.0000
  O   O10       1.0  0.07533094  0.5175224499999997  0.7535420099999999  1.0000
  O   O11       1.0  0.5753309199999999  0.9824775399999998  0.25354191  1.0000
  O   O12       1.0  0.9246690999999999  0.4824775399999999  0.24645798999999996  1.0000
