data_image0
_chemical_formula_structural       Ni16Nb8O36
_chemical_formula_sum              "Ni16 Nb8 O36"
_cell_length_a       8.82914091199624
_cell_length_b       5.1355835304657305
_cell_length_c       14.535289597724837
_cell_angle_alpha    90.01009663904478
_cell_angle_beta     90.00092486445936
_cell_angle_gamma    89.99326646266026

_space_group_name_H-M_alt    "P 1"
_space_group_IT_number       1

loop_
  _space_group_symop_operation_xyz
  'x, y, z'

loop_
  _atom_site_type_symbol
  _atom_site_label
  _atom_site_symmetry_multiplicity
  _atom_site_fract_x
  _atom_site_fract_y
  _atom_site_fract_z
  _atom_site_occupancy
  Ni  Ni1       1.0  0.33651492000000005  0.00370029  0.18584256  1.0000
  Ni  Ni2       1.0  0.16376699  0.49634142000000003  0.6856633599999999  1.0000
  Ni  Ni3       1.0  0.8363972600000001  0.49638040000000005  0.8140277399999999  1.0000
  Ni  Ni4       1.0  0.6636782500000001  0.0035960800000000006  0.3143912799999999  1.0000
  Ni  Ni5       1.0  0.66364096  0.9966041400000001  0.81413496  1.0000
  Ni  Ni6       1.0  0.83642115  0.5035766  0.31411401  1.0000
  Ni  Ni7       1.0  0.163666  0.50371047  0.18577275  1.0000
  Ni  Ni8       1.0  0.3361474  0.9963300600000002  0.68565744  1.0000
  Ni  Ni9       1.0  0.3354107200000001  0.0030829700000000004  0.0016786  1.0000
  Ni  Ni10      1.0  0.16482966  0.49684686000000006  0.50166602  1.0000
  Ni  Ni11      1.0  0.8355467800000002  0.49725946  0.99837136  1.0000
  Ni  Ni12      1.0  0.6647102700000002  0.0029497900000000003  0.49839674999999994  1.0000
  Ni  Ni13      1.0  0.6646865100000002  0.9968275400000001  0.99824555  1.0000
  Ni  Ni14      1.0  0.83521258  0.50342924  0.49849037  1.0000
  Ni  Ni15      1.0  0.16451654  0.5035737700000001  0.00167521  1.0000
  Ni  Ni16      1.0  0.33522139  0.99641192  0.50168741  1.0000
  Nb  Nb1       1.0  0.028446130000000003  0.0038697900000000006  0.35518162999999997  1.0000
  Nb  Nb2       1.0  0.4716245900000002  0.49646783999999994  0.85525856  1.0000
  Nb  Nb3       1.0  0.5281916400000001  0.49580429000000004  0.6449526999999999  1.0000
  Nb  Nb4       1.0  0.9718944900000002  0.00409381  0.1448805  1.0000
  Nb  Nb5       1.0  0.97173918  0.99587843  0.6449324499999999  1.0000
  Nb  Nb6       1.0  0.52817901  0.5039818  0.14488066999999996  1.0000
  Nb  Nb7       1.0  0.47156742000000007  0.5037114500000001  0.35516064  1.0000
  Nb  Nb8       1.0  0.02836914  0.9963169300000001  0.8551875  1.0000
  O   O1        1.0  0.99998813  0.7098100100000001  0.2498604  1.0000
  O   O2        1.0  0.5000841900000002  0.7903084399999999  0.7498358399999999  1.0000
  O   O3        1.0  0.00011714999999999999  0.29008676000000005  0.74999246  1.0000
  O   O4        1.0  0.5000780599999999  0.20972672000000003  0.25004934  1.0000
  O   O5        1.0  0.17150072000000002  0.8301504699999999  0.42857609  1.0000
  O   O6        1.0  0.32812928  0.6699428300000001  0.92833875  1.0000
  O   O7        1.0  0.67097368  0.66960102  0.57136703  1.0000
  O   O8        1.0  0.8286677100000001  0.8306364900000002  0.07154562  1.0000
  O   O9        1.0  0.8287154700000001  0.16944634  0.57150282  1.0000
  O   O10       1.0  0.67159914  0.33063102  0.07170289999999999  1.0000
  O   O11       1.0  0.32847311  0.3301972000000001  0.4285388199999999  1.0000
  O   O12       1.0  0.17158999  0.1697282  0.9284163099999999  1.0000
  O   O13       1.0  0.16704654  0.8291363699999998  0.09557043  1.0000
  O   O14       1.0  0.33285127  0.6703098999999999  0.59566249  1.0000
  O   O15       1.0  0.66597776  0.67062824  0.90448974  1.0000
  O   O16       1.0  0.8339215200000001  0.82941783  0.4043468  1.0000
  O   O17       1.0  0.8337675900000001  0.17027844  0.90447685  1.0000
  O   O18       1.0  0.66628852  0.32989438  0.40435396  1.0000
  O   O19       1.0  0.33308077  0.32902764000000007  0.09566294  1.0000
  O   O20       1.0  0.16703034000000003  0.17038391  0.59576046  1.0000
  O   O21       1.0  0.1494876  0.8484972600000001  0.7483809899999999  1.0000
  O   O22       1.0  0.35032104000000003  0.65123578  0.24843125  1.0000
  O   O23       1.0  0.64963802  0.65118376  0.25152345  1.0000
  O   O24       1.0  0.8501089600000001  0.8487191599999999  0.75148437  1.0000
  O   O25       1.0  0.8503941600000001  0.1511468  0.25150133  1.0000
  O   O26       1.0  0.64980987  0.34856641000000005  0.75147743  1.0000
  O   O27       1.0  0.35047686  0.34890749  0.7483308899999999  1.0000
  O   O28       1.0  0.14966949  0.15120728  0.24840545  1.0000
  O   O29       1.0  0.50415047  0.8392233799999999  0.41531027  1.0000
  O   O30       1.0  0.99578973  0.66051913  0.91519923  1.0000
  O   O31       1.0  0.00403724  0.6607013  0.58461143  1.0000
  O   O32       1.0  0.4959461000000001  0.8394425400000003  0.08464692  1.0000
  O   O33       1.0  0.49596917000000007  0.16064482  0.5845472299999999  1.0000
  O   O34       1.0  0.00408665  0.3396540699999999  0.08467246  1.0000
  O   O35       1.0  0.9955453500000001  0.33820834000000005  0.4156110499999999  1.0000
  O   O36       1.0  0.50430873  0.16205881000000003  0.91554423  1.0000
