data_image0
_chemical_formula_structural       Mn4Ba8O12
_chemical_formula_sum              "Mn4 Ba8 O12"
_cell_length_a       5.956229195801971
_cell_length_b       6.577467722493328
_cell_length_c       12.812521827113333
_cell_angle_alpha    88.38751297615583
_cell_angle_beta     86.43770168016421
_cell_angle_gamma    63.077520448207785

_space_group_name_H-M_alt    "P 1"
_space_group_IT_number       1

loop_
  _space_group_symop_operation_xyz
  'x, y, z'

loop_
  _atom_site_type_symbol
  _atom_site_label
  _atom_site_symmetry_multiplicity
  _atom_site_fract_x
  _atom_site_fract_y
  _atom_site_fract_z
  _atom_site_occupancy
  Mn  Mn1       1.0  0.95459335  0.00617997  0.56925701  1.0000
  Mn  Mn2       1.0  0.9607595399999999  0.9938245600000002  0.06926009  1.0000
  Mn  Mn3       1.0  0.5164670000000001  0.00620387  0.73512813  1.0000
  Mn  Mn4       1.0  0.5226745399999999  0.9937928200000001  0.23512318  1.0000
  Ba  Ba1       1.0  0.80025139  0.4122185000000001  0.7518675899999998  1.0000
  Ba  Ba2       1.0  0.21247549999999998  0.5877887400000001  0.25186902  1.0000
  Ba  Ba3       1.0  0.26482219000000007  0.41217307999999997  0.55248894  1.0000
  Ba  Ba4       1.0  0.6769912500000002  0.5878144300000001  0.05249482  1.0000
  Ba  Ba5       1.0  0.36793472999999977  0.21001676  0.97610191  1.0000
  Ba  Ba6       1.0  0.57797319  0.78997109  0.4761017  1.0000
  Ba  Ba7       1.0  0.10928975000000002  0.7900110100000002  0.8282782  1.0000
  Ba  Ba8       1.0  0.8993223400000002  0.20998966  0.32827005  1.0000
  O   O1        1.0  0.55996928  0.8034806500000001  0.8667502399999998  1.0000
  O   O2        1.0  0.36340177000000007  0.19649783000000007  0.36674205  1.0000
  O   O3        1.0  0.9173108400000001  0.19655023  0.9376458  1.0000
  O   O4        1.0  0.11385181000000005  0.80344372  0.43764515  1.0000
  O   O5        1.0  0.74391548  0.3465038700000001  0.53327715  1.0000
  O   O6        1.0  0.09041411000000003  0.6535059400000001  0.03328636  1.0000
  O   O7        1.0  0.7333285100000001  0.6534696  0.27110864  1.0000
  O   O8        1.0  0.38685425  0.34652502  0.77110683  1.0000
  O   O9        1.0  0.63395995  0.20928476999999998  0.15218957  1.0000
  O   O10       1.0  0.84323948  0.7907394000000001  0.6521925999999999  1.0000
  O   O11       1.0  0.23110142  0.01500524  0.65220876  1.0000
  O   O12       1.0  0.24609832000000004  0.98500923  0.15220619  1.0000
