data_image0
_chemical_formula_structural       Ti2O4
_chemical_formula_sum              "Ti2 O4"
_cell_length_a       4.659481591629813
_cell_length_b       4.659481566937633
_cell_length_c       2.9947437577201494
_cell_angle_alpha    89.99999653660538
_cell_angle_beta     90.00000020429381
_cell_angle_gamma    89.99628418071192

_space_group_name_H-M_alt    "P 1"
_space_group_IT_number       1

loop_
  _space_group_symop_operation_xyz
  'x, y, z'

loop_
  _atom_site_type_symbol
  _atom_site_label
  _atom_site_symmetry_multiplicity
  _atom_site_fract_x
  _atom_site_fract_y
  _atom_site_fract_z
  _atom_site_occupancy
  Ti  Ti1       1.0  0.9999998400000001  1.6e-07  9.999999999999999e-17  1.0000
  Ti  Ti2       1.0  0.50000014  0.49999966999999995  0.49999999999999994  1.0000
  O   O1        1.0  0.8048991700000001  0.19510086  0.5000000300000002  1.0000
  O   O2        1.0  0.19510091  0.80489912  0.4999999700000001  1.0000
  O   O3        1.0  0.69509917  0.6950992900000001  0.99999999  1.0000
  O   O4        1.0  0.30490077  0.3049008999999999  9.999999999999999e-09  1.0000
