data_image0
_chemical_formula_structural       Y4Mn4O12
_chemical_formula_sum              "Y4 Mn4 O12"
_cell_length_a       5.9717092584311
_cell_length_b       7.470279272937338
_cell_length_c       5.368467168547736
_cell_angle_alpha    90.00124418180826
_cell_angle_beta     90.05511960855601
_cell_angle_gamma    90.08232384784505

_space_group_name_H-M_alt    "P 1"
_space_group_IT_number       1

loop_
  _space_group_symop_operation_xyz
  'x, y, z'

loop_
  _atom_site_type_symbol
  _atom_site_label
  _atom_site_symmetry_multiplicity
  _atom_site_fract_x
  _atom_site_fract_y
  _atom_site_fract_z
  _atom_site_occupancy
  Y   Y1        1.0  0.08510838  0.25010421999999993  0.4829195100000001  1.0000
  Y   Y2        1.0  0.5852185399999998  0.25009318  0.01751428  1.0000
  Y   Y3        1.0  0.9148916600000001  0.74989588  0.51708059  1.0000
  Y   Y4        1.0  0.41478149  0.7499069399999998  0.9824858500000001  1.0000
  Mn  Mn1       1.0  0.50000002  5.000000000000055e-08  0.50000006  1.0000
  Mn  Mn2       1.0  1.9999999999985412e-08  0.50000005  6e-08  1.0000
  Mn  Mn3       1.0  0.50000001  0.5000000499999999  0.50000007  1.0000
  Mn  Mn4       1.0  2.0000000000000004e-08  5e-08  4e-08  1.0000
  O   O1        1.0  0.9620303  0.25040825  0.8896399000000002  1.0000
  O   O2        1.0  0.46302941000000003  0.25038629  0.61000736  1.0000
  O   O3        1.0  0.03796974  0.7495918599999999  0.11036021  1.0000
  O   O4        1.0  0.5369706199999998  0.7496138099999998  0.38999278  1.0000
  O   O5        1.0  0.8268512800000001  0.05197408  0.29722972  1.0000
  O   O6        1.0  0.33072475  0.4471248199999999  0.20275518000000003  1.0000
  O   O7        1.0  0.16933151  0.55285097  0.7027601  1.0000
  O   O8        1.0  0.6732586800000002  0.9478479899999998  0.7972822  1.0000
  O   O9        1.0  0.17314876  0.94802602  0.70277037  1.0000
  O   O10       1.0  0.6692752699999999  0.5528752799999997  0.79724496  1.0000
  O   O11       1.0  0.8306685300000001  0.4471491399999999  0.29724002  1.0000
  O   O12       1.0  0.3267413699999999  0.05215212  0.20271791  1.0000
