data_image0
_chemical_formula_structural       Ba8O16Ti4
_chemical_formula_sum              "Ba8 O16 Ti4"
_cell_length_a       6.261525682967216
_cell_length_b       7.787010112000016
_cell_length_c       12.011653419388546
_cell_angle_alpha    89.99999635525494
_cell_angle_beta     117.32291485604904
_cell_angle_gamma    90.00000737777333

_space_group_name_H-M_alt    "P 1"
_space_group_IT_number       1

loop_
  _space_group_symop_operation_xyz
  'x, y, z'

loop_
  _atom_site_type_symbol
  _atom_site_label
  _atom_site_symmetry_multiplicity
  _atom_site_fract_x
  _atom_site_fract_y
  _atom_site_fract_z
  _atom_site_occupancy
  Ba  Ba1       1.0  0.3036520999999999  0.6606874000000001  0.57269914  1.0000
  Ba  Ba2       1.0  0.69634783  0.16068749000000002  0.92730088  1.0000
  Ba  Ba3       1.0  0.6963479400000001  0.33931267  0.42730087  1.0000
  Ba  Ba4       1.0  0.3036520700000001  0.83931267  0.0726991  1.0000
  Ba  Ba5       1.0  0.9772858200000001  0.9966849300000001  0.70003322  1.0000
  Ba  Ba6       1.0  0.022714170000000228  0.49668498  0.7999668300000001  1.0000
  Ba  Ba7       1.0  0.022714109999999902  0.00331501  0.2999668  1.0000
  Ba  Ba8       1.0  0.9772858800000002  0.50331497  0.20003318  1.0000
  O   O1        1.0  0.27365074  0.9915988000000002  0.56232324  1.0000
  O   O2        1.0  0.7263492300000001  0.49159898  0.9376767600000001  1.0000
  O   O3        1.0  0.7263487700000001  0.00840037  0.43767657000000004  1.0000
  O   O4        1.0  0.2736514  0.50840006  0.06232349  1.0000
  O   O5        1.0  0.6678699999999999  0.25379928  0.69234284  1.0000
  O   O6        1.0  0.33212998  0.75379932  0.80765715  1.0000
  O   O7        1.0  0.33212987  0.7462004800000003  0.30765732  1.0000
  O   O8        1.0  0.66787023  0.24620034  0.19234268000000002  1.0000
  O   O9        1.0  0.14258073999999984  0.3257816  0.63666745  1.0000
  O   O10       1.0  0.8574192200000001  0.82578161  0.8633325200000002  1.0000
  O   O11       1.0  0.8574190100000001  0.67421842  0.36333259  1.0000
  O   O12       1.0  0.14258107  0.17421848  0.13666745  1.0000
  O   O13       1.0  0.26758303  0.32036901  0.42926679  1.0000
  O   O14       1.0  0.7324169800000001  0.8203690400000001  0.07073323  1.0000
  O   O15       1.0  0.73241701  0.67963122  0.57073316  1.0000
  O   O16       1.0  0.26758289999999973  0.1796313  0.9292668099999999  1.0000
  Ti  Ti1       1.0  0.3451364199999999  0.21962391  0.58340005  1.0000
  Ti  Ti2       1.0  0.6548636499999999  0.71962384  0.91659999  1.0000
  Ti  Ti3       1.0  0.6548639600000001  0.78037675  0.4166002200000001  1.0000
  Ti  Ti4       1.0  0.34513584  0.2803770800000001  0.08339966  1.0000
