data_image0
_chemical_formula_structural       Y16O24
_chemical_formula_sum              "Y16 O24"
_cell_length_a       9.396440178243918
_cell_length_b       9.396440110693932
_cell_length_c       9.396440369924205
_cell_angle_alpha    109.4712234076117
_cell_angle_beta     109.47122436351702
_cell_angle_gamma    109.47122251393978

_space_group_name_H-M_alt    "P 1"
_space_group_IT_number       1

loop_
  _space_group_symop_operation_xyz
  'x, y, z'

loop_
  _atom_site_type_symbol
  _atom_site_label
  _atom_site_symmetry_multiplicity
  _atom_site_fract_x
  _atom_site_fract_y
  _atom_site_fract_z
  _atom_site_occupancy
  Y   Y1        1.0  0.5  0.5  0.5  1.0000
  Y   Y2        1.0  0.4999999899999999  0.9999999999999998  0.0  1.0000
  Y   Y3        1.0  0.0  1.0  0.5  1.0000
  Y   Y4        1.0  1.0000000003462262e-08  0.5000000199999999  1.0000000000000002e-08  1.0000
  Y   Y5        1.0  0.24999999000000006  0.2173862300000001  0.96738623  1.0000
  Y   Y6        1.0  0.2500000000000001  0.71738624  0.46738623000000007  1.0000
  Y   Y7        1.0  0.03261377000000011  0.75000001  0.7826137699999999  1.0000
  Y   Y8        1.0  0.9673862400000001  0.24999999  0.21738624  1.0000
  Y   Y9        1.0  0.21738622999999996  0.9673862199999999  0.25  1.0000
  Y   Y10       1.0  0.7500000199999999  0.78261376  0.0326137799999999  1.0000
  Y   Y11       1.0  0.78261376  0.03261376000000014  0.7499999899999998  1.0000
  Y   Y12       1.0  0.75  0.28261376  0.53261376  1.0000
  Y   Y13       1.0  0.2826137700000001  0.5326137400000001  0.75  1.0000
  Y   Y14       1.0  0.5326137499999999  0.75  0.28261377000000004  1.0000
  Y   Y15       1.0  0.4673862400000001  0.25  0.71738623  1.0000
  Y   Y16       1.0  0.7173862299999999  0.46738626000000005  0.25  1.0000
  O   O1        1.0  0.5323470800000001  0.77076412  0.54220751  1.0000
  O   O2        1.0  0.27144335  0.009860380000000002  0.04220744  1.0000
  O   O3        1.0  0.7615829400000002  0.032347060000000045  0.4901395700000001  1.0000
  O   O4        1.0  0.96765294  0.50986043  0.23841705  1.0000
  O   O5        1.0  0.5422075  0.53234708  0.7707641299999999  1.0000
  O   O6        1.0  0.7707641299999999  0.54220751  0.5323470900000001  1.0000
  O   O7        1.0  0.03234706000000012  0.49013957  0.76158295  1.0000
  O   O8        1.0  0.49013956999999997  0.76158295  0.03234705  1.0000
  O   O9        1.0  0.7714433599999999  0.72923589  0.2615829499999999  1.0000
  O   O10       1.0  0.2285566400000001  0.27076411  0.73841705  1.0000
  O   O11       1.0  0.99013962  0.95779255  0.7285566600000001  1.0000
  O   O12       1.0  0.95779255  0.72855666  0.9901396200000001  1.0000
  O   O13       1.0  0.7384170499999999  0.22855664999999997  0.2707641099999999  1.0000
  O   O14       1.0  0.7292358900000001  0.26158295000000004  0.7714433600000001  1.0000
  O   O15       1.0  0.2707641099999999  0.73841704  0.22855664  1.0000
  O   O16       1.0  0.5098604300000003  0.23841705000000005  0.9676529500000001  1.0000
  O   O17       1.0  0.4676529300000001  0.22923588000000003  0.4577925  1.0000
  O   O18       1.0  0.2384170599999999  0.96765295  0.5098604399999999  1.0000
  O   O19       1.0  0.04220743999999999  0.27144333  0.00986038  1.0000
  O   O20       1.0  0.72855665  0.9901396200000001  0.9577925499999999  1.0000
  O   O21       1.0  0.4577925  0.4676529099999999  0.22923587000000004  1.0000
  O   O22       1.0  0.009860380000000007  0.042207460000000016  0.27144334  1.0000
  O   O23       1.0  0.22923587000000004  0.45779249000000005  0.46765291  1.0000
  O   O24       1.0  0.2615829499999999  0.7714433499999999  0.7292358899999999  1.0000
