data_image0
_chemical_formula_structural       Nb8Fe4O24
_chemical_formula_sum              "Nb8 Fe4 O24"
_cell_length_a       14.52210161593981
_cell_length_b       5.867258357300493
_cell_length_c       5.133663481238659
_cell_angle_alpha    90.00635036133512
_cell_angle_beta     90.00039121439376
_cell_angle_gamma    90.00173356458448

_space_group_name_H-M_alt    "P 1"
_space_group_IT_number       1

loop_
  _space_group_symop_operation_xyz
  'x, y, z'

loop_
  _atom_site_type_symbol
  _atom_site_label
  _atom_site_symmetry_multiplicity
  _atom_site_fract_x
  _atom_site_fract_y
  _atom_site_fract_z
  _atom_site_occupancy
  Nb  Nb1       1.0  0.33925367  0.67699478  0.74279535  1.0000
  Nb  Nb2       1.0  0.16075639  0.8230094300000002  0.2427654  1.0000
  Nb  Nb3       1.0  0.83925861  0.8230009499999998  0.2572188  1.0000
  Nb  Nb4       1.0  0.66074883  0.67700423  0.75724888  1.0000
  Nb  Nb5       1.0  0.660751  0.3230131700000001  0.25719925  1.0000
  Nb  Nb6       1.0  0.8392463600000001  0.17699527  0.7572369699999999  1.0000
  Nb  Nb7       1.0  0.16074393  0.17699416  0.74278269  1.0000
  Nb  Nb8       1.0  0.3392542  0.32298963  0.24274526  1.0000
  Fe  Fe1       1.0  7.600000000000013e-07  0.6581822199999999  0.74998096  1.0000
  Fe  Fe2       1.0  0.49999142  0.8418183699999998  0.25005642  1.0000
  Fe  Fe3       1.0  6.090000000000001e-06  0.3418166000000001  0.24998547  1.0000
  Fe  Fe4       1.0  0.50001697  0.15818499  0.74998562  1.0000
  O   O1        1.0  0.09706708  0.8938554399999998  0.5713148299999999  1.0000
  O   O2        1.0  0.4029242  0.60617374  0.07136232  1.0000
  O   O3        1.0  0.5970666500000001  0.60611703  0.42871168999999987  1.0000
  O   O4        1.0  0.9029266200000001  0.89384635  0.9286712499999998  1.0000
  O   O5        1.0  0.9029302200000001  0.10612537  0.4286945899999999  1.0000
  O   O6        1.0  0.5970734  0.3937995700000001  0.92861988  1.0000
  O   O7        1.0  0.40293077  0.3939082600000001  0.57127342  1.0000
  O   O8        1.0  0.09707079000000002  0.10617151  0.0713385  1.0000
  O   O9        1.0  0.4203166400000001  0.8800031300000001  0.58317099  1.0000
  O   O10       1.0  0.07968688  0.62005783  0.08303904  1.0000
  O   O11       1.0  0.92031168  0.62001194  0.41689968000000005  1.0000
  O   O12       1.0  0.5796916300000002  0.8799289699999999  0.91701935  1.0000
  O   O13       1.0  0.57968059  0.12006476  0.41686504  1.0000
  O   O14       1.0  0.9203094499999999  0.37999031  0.91693236  1.0000
  O   O15       1.0  0.07968428  0.37993851  0.5830707799999999  1.0000
  O   O16       1.0  0.42030194  0.12000328000000002  0.08301942  1.0000
  O   O17       1.0  0.7554902499999999  0.8779290399999999  0.58624359  1.0000
  O   O18       1.0  0.74449975  0.62203854  0.08624909  1.0000
  O   O19       1.0  0.25549031  0.62208172  0.4137653099999999  1.0000
  O   O20       1.0  0.24449847000000002  0.8779551600000001  0.9137575199999999  1.0000
  O   O21       1.0  0.24450759  0.12207320999999999  0.41375579  1.0000
  O   O22       1.0  0.25549897  0.37795938  0.91374824  1.0000
  O   O23       1.0  0.74450938  0.37792197000000016  0.58623347  1.0000
  O   O24       1.0  0.7555000199999999  0.12204135  0.08624077  1.0000
