data_image0
_chemical_formula_structural       Nb4O28La12
_chemical_formula_sum              "Nb4 O28 La12"
_cell_length_a       7.875594505001597
_cell_length_b       11.274078181001752
_cell_length_c       7.859566153000585
_cell_angle_alpha    90.00002143329016
_cell_angle_beta     89.9999973047028
_cell_angle_gamma    89.99996521048274

_space_group_name_H-M_alt    "P 1"
_space_group_IT_number       1

loop_
  _space_group_symop_operation_xyz
  'x, y, z'

loop_
  _atom_site_type_symbol
  _atom_site_label
  _atom_site_symmetry_multiplicity
  _atom_site_fract_x
  _atom_site_fract_y
  _atom_site_fract_z
  _atom_site_occupancy
  Nb  Nb1       1.0  0.5019870699999999  0.24999901000000002  0.2502563  1.0000
  Nb  Nb2       1.0  0.00198709  0.24999904000000012  0.24974398  1.0000
  Nb  Nb3       1.0  0.49801305  0.75000094  0.7497436700000001  1.0000
  Nb  Nb4       1.0  0.9980128300000001  0.75000097  0.7502559700000001  1.0000
  O   O1        1.0  0.46304251  0.38197326000000015  0.08659722  1.0000
  O   O2        1.0  0.96304267  0.11802708  0.41340205000000013  1.0000
  O   O3        1.0  0.53695724  0.8819730400000003  0.9134019000000002  1.0000
  O   O4        1.0  0.03695741  0.6180268700000002  0.5865965100000001  1.0000
  O   O5        1.0  0.5369574699999999  0.6180266200000002  0.9134026900000001  1.0000
  O   O6        1.0  0.03695732000000001  0.8819730400000001  0.5865981800000001  1.0000
  O   O7        1.0  0.4630426799999999  0.11802684000000001  0.08659834  1.0000
  O   O8        1.0  0.9630426699999999  0.3819733200000003  0.41340317  1.0000
  O   O9        1.0  0.74709704  0.25000010000000017  0.18202205  1.0000
  O   O10       1.0  0.24709702  0.25000008  0.31797823  1.0000
  O   O11       1.0  0.25290292  0.7499998000000003  0.8179779900000003  1.0000
  O   O12       1.0  0.7529030199999999  0.74999992  0.6820218600000002  1.0000
  O   O13       1.0  0.7538699000000001  0.38169771000000013  0.7713349700000002  1.0000
  O   O14       1.0  0.25386996  0.11830263000000002  0.7286649600000001  1.0000
  O   O15       1.0  0.2461298299999999  0.8816973600000001  0.22866483  1.0000
  O   O16       1.0  0.7461300199999998  0.6183022900000003  0.27133492000000003  1.0000
  O   O17       1.0  0.24613014000000003  0.6183023300000002  0.22866491  1.0000
  O   O18       1.0  0.74613004  0.8816973900000004  0.27133512  1.0000
  O   O19       1.0  0.7538700399999999  0.11830264000000001  0.7713352500000001  1.0000
  O   O20       1.0  0.2538698699999999  0.3816977500000001  0.7286649300000001  1.0000
  O   O21       1.0  0.46837741000000005  0.8718816100000001  0.55240348  1.0000
  O   O22       1.0  0.9683774300000001  0.62811792  0.9475962800000001  1.0000
  O   O23       1.0  0.5316226199999999  0.37188197999999995  0.44759663000000005  1.0000
  O   O24       1.0  0.03162259  0.12811839000000003  0.052403670000000006  1.0000
  O   O25       1.0  0.5316225400000001  0.12811841  0.44759662000000017  1.0000
  O   O26       1.0  0.03162256  0.371882  0.05240362  1.0000
  O   O27       1.0  0.46837747  0.6281180400000002  0.5524032900000002  1.0000
  O   O28       1.0  0.9683774099999999  0.8718815600000003  0.9475964200000001  1.0000
  La  La1       1.0  0.7490685399999999  0.4779084000000002  0.04219135  1.0000
  La  La2       1.0  0.24906857  0.02209162  0.45780846  1.0000
  La  La3       1.0  0.25093116  0.9779084000000003  0.9578084800000001  1.0000
  La  La4       1.0  0.7509313399999998  0.5220916000000001  0.5421913800000001  1.0000
  La  La5       1.0  0.25093146  0.52209157  0.9578086800000002  1.0000
  La  La6       1.0  0.75093142  0.9779084400000002  0.5421916100000002  1.0000
  La  La7       1.0  0.7490688099999999  0.022091580000000003  0.042191610000000004  1.0000
  La  La8       1.0  0.2490689  0.4779084400000001  0.45780853  1.0000
  La  La9       1.0  0.5080800699999999  0.24999963  0.7177661  1.0000
  La  La10      1.0  0.00808012  0.24999961000000004  0.7822337900000002  1.0000
  La  La11      1.0  0.49191991000000007  0.75000042  0.28223374  1.0000
  La  La12      1.0  0.9919198199999998  0.75000035  0.21776625  1.0000
