data_image0
_chemical_formula_structural       Ba8O44Fe24
_chemical_formula_sum              "Ba8 O44 Fe24"
_cell_length_a       23.312843159501195
_cell_length_b       5.236982929947703
_cell_length_c       9.005547044802386
_cell_angle_alpha    89.99631748577664
_cell_angle_beta     90.03921026330546
_cell_angle_gamma    89.93912791603587

_space_group_name_H-M_alt    "P 1"
_space_group_IT_number       1

loop_
  _space_group_symop_operation_xyz
  'x, y, z'

loop_
  _atom_site_type_symbol
  _atom_site_label
  _atom_site_symmetry_multiplicity
  _atom_site_fract_x
  _atom_site_fract_y
  _atom_site_fract_z
  _atom_site_occupancy
  Ba  Ba1       1.0  0.6408376900000001  0.11218667  0.49899093  1.0000
  Ba  Ba2       1.0  0.14095058  0.38641021  0.00106107  1.0000
  Ba  Ba3       1.0  0.3599646200000001  0.89007365  0.50349117  1.0000
  Ba  Ba4       1.0  0.8599959500000001  0.60789156  0.00492832  1.0000
  Ba  Ba5       1.0  0.8452245500000004  0.5337474  0.50209947  1.0000
  Ba  Ba6       1.0  0.34615575000000004  0.9681553600000001  0.00137751  1.0000
  Ba  Ba7       1.0  0.15296796  0.4668943400000001  0.50138918  1.0000
  Ba  Ba8       1.0  0.6523859100000001  0.029960960000000002  0.00035635  1.0000
  O   O1        1.0  0.7860432800000001  0.47694629  0.7663967  1.0000
  O   O2        1.0  0.28542421000000007  0.0305365  0.7409177  1.0000
  O   O3        1.0  0.21583825  0.53063988  0.76181792  1.0000
  O   O4        1.0  0.7129144900000001  0.9771253300000001  0.73896113  1.0000
  O   O5        1.0  0.21536579000000003  0.5305358100000002  0.24132791999999997  1.0000
  O   O6        1.0  0.7136609300000001  0.97180912  0.2612281  1.0000
  O   O7        1.0  0.7862968300000002  0.4706960500000001  0.23901794999999998  1.0000
  O   O8        1.0  0.2847497300000001  0.02963303  0.26262067  1.0000
  O   O9        1.0  0.5491821800000001  0.31667443  0.65987339  1.0000
  O   O10       1.0  0.04855291  0.1770224500000001  0.84032455  1.0000
  O   O11       1.0  0.45152146  0.6731518200000002  0.65637573  1.0000
  O   O12       1.0  0.9510997500000002  0.82278013  0.8388516  1.0000
  O   O13       1.0  0.45042577000000006  0.6746381000000001  0.3445498  1.0000
  O   O14       1.0  0.9521445600000001  0.82691274  0.15344635  1.0000
  O   O15       1.0  0.5483624900000001  0.3252283399999999  0.34577597  1.0000
  O   O16       1.0  0.049238090000000005  0.18264265  0.15655141  1.0000
  O   O17       1.0  0.9502515600000003  0.35103861  0.6630129  1.0000
  O   O18       1.0  0.44982063000000017  0.1453368  0.84051758  1.0000
  O   O19       1.0  0.049230800000000005  0.64905114  0.66087346  1.0000
  O   O20       1.0  0.5496945600000002  0.8526665800000002  0.8352557699999998  1.0000
  O   O21       1.0  0.05001282  0.64671224  0.33363906  1.0000
  O   O22       1.0  0.5493775400000003  0.8536783000000001  0.16107798  1.0000
  O   O23       1.0  0.9498438400000003  0.35307237  0.33924726  1.0000
  O   O24       1.0  0.44944624000000005  0.14525466  0.1627585  1.0000
  O   O25       1.0  0.84523116  0.99747594  0.67037538  1.0000
  O   O26       1.0  0.34712253000000004  0.5076872800000001  0.8209563199999999  1.0000
  O   O27       1.0  0.15435606  0.01141754  0.67369208  1.0000
  O   O28       1.0  0.6529287400000001  0.49708718000000013  0.8207825899999999  1.0000
  O   O29       1.0  0.15269642  0.01080574  0.31655114  1.0000
  O   O30       1.0  0.65290864  0.49086195000000005  0.18515667  1.0000
  O   O31       1.0  0.8474093100000002  0.98716138  0.31221315  1.0000
  O   O32       1.0  0.34644459000000016  0.5037033600000002  0.17816409  1.0000
  O   O33       1.0  0.5448351100000001  0.82775106  0.49949998  1.0000
  O   O34       1.0  0.04497273  0.6700124100000001  0.9976813299999998  1.0000
  O   O35       1.0  0.45627608000000003  0.16753881  0.50111712  1.0000
  O   O36       1.0  0.9559186700000001  0.33221826  0.9996303499999999  1.0000
  O   O37       1.0  0.05462332000000001  0.17621116  0.50014408  1.0000
  O   O38       1.0  0.5550788500000001  0.32480675  0.00240492  1.0000
  O   O39       1.0  0.9456969800000001  0.81950828  0.4984718299999999  1.0000
  O   O40       1.0  0.44567185  0.6788051200000002  0.00098073  1.0000
  O   O41       1.0  0.7040189300000004  0.56466305  0.50184547  1.0000
  O   O42       1.0  0.20242907000000002  0.9372383800000001  0.99998294  1.0000
  O   O43       1.0  0.29978983  0.43708671  0.50095062  1.0000
  O   O44       1.0  0.7972815000000002  0.06386588  0.9986342099999999  1.0000
  Fe  Fe1       1.0  0.49860969  0.50150847  0.49956206  1.0000
  Fe  Fe2       1.0  0.9988892400000002  0.99837265  0.9962757999999999  1.0000
  Fe  Fe3       1.0  0.4976633300000002  0.9934475000000003  0.00300927  1.0000
  Fe  Fe4       1.0  0.9977308000000001  0.5053609400000001  0.49938824  1.0000
  Fe  Fe5       1.0  0.5026020200000001  0.00148623  0.6699081999999998  1.0000
  Fe  Fe6       1.0  0.00056266  0.49924116  0.83048011  1.0000
  Fe  Fe7       1.0  0.5002983900000001  0.9999571400000001  0.33566559  1.0000
  Fe  Fe8       1.0  0.0027251  0.49825608000000016  0.16626317  1.0000
  Fe  Fe9       1.0  0.9263136500000002  0.01064399  0.67638544  1.0000
  Fe  Fe10      1.0  0.4269079900000002  0.48989754  0.8218277199999999  1.0000
  Fe  Fe11      1.0  0.07304916000000002  0.99138736  0.6760132  1.0000
  Fe  Fe12      1.0  0.5728480300000002  0.5072656  0.82393893  1.0000
  Fe  Fe13      1.0  0.07281439  0.99320066  0.32190895  1.0000
  Fe  Fe14      1.0  0.5729528800000001  0.5072903900000001  0.17860455  1.0000
  Fe  Fe15      1.0  0.9270026300000002  0.00879631  0.31916798  1.0000
  Fe  Fe16      1.0  0.42616065  0.48990951000000005  0.17869844  1.0000
  Fe  Fe17      1.0  0.7136039400000003  0.6148578499999999  0.70789379  1.0000
  Fe  Fe18      1.0  0.21425429000000001  0.88469522  0.79320987  1.0000
  Fe  Fe19      1.0  0.2866222700000001  0.38460613  0.70772653  1.0000
  Fe  Fe20      1.0  0.7856431200000003  0.11461616000000001  0.7944916799999999  1.0000
  Fe  Fe21      1.0  0.2863324600000001  0.3841197100000001  0.29437942  1.0000
  Fe  Fe22      1.0  0.7859482  0.11041083  0.20421521  1.0000
  Fe  Fe23      1.0  0.7139476600000001  0.6111557500000001  0.29558901  1.0000
  Fe  Fe24      1.0  0.21384235000000001  0.8845068600000001  0.20804841  1.0000
