data_image0
_chemical_formula_structural       Al8O16Sr4
_chemical_formula_sum              "Al8 O16 Sr4"
_cell_length_a       8.5466590835095
_cell_length_b       8.92082965000008
_cell_length_c       5.216844931195711
_cell_angle_alpha    90.00000470982171
_cell_angle_beta     93.5474751675785
_cell_angle_gamma    90.00000201227839

_space_group_name_H-M_alt    "P 1"
_space_group_IT_number       1

loop_
  _space_group_symop_operation_xyz
  'x, y, z'

loop_
  _atom_site_type_symbol
  _atom_site_label
  _atom_site_symmetry_multiplicity
  _atom_site_fract_x
  _atom_site_fract_y
  _atom_site_fract_z
  _atom_site_occupancy
  Al  Al1       1.0  0.8108911000000001  0.3306976500000001  0.28522081  1.0000
  Al  Al2       1.0  0.18910902000000002  0.8306967600000001  0.7147770900000001  1.0000
  Al  Al3       1.0  0.20044283  0.3376349100000001  0.2741781  1.0000
  Al  Al4       1.0  0.7995558100000001  0.8376355800000004  0.72582212  1.0000
  Al  Al5       1.0  0.29242566  0.16828833000000004  0.77979505  1.0000
  Al  Al6       1.0  0.7075737700000002  0.6682874700000002  0.22020522  1.0000
  Al  Al7       1.0  0.3188701800000001  0.6683455300000001  0.20381527  1.0000
  Al  Al8       1.0  0.6811302700000001  0.16834863  0.79618497  1.0000
  O   O1        1.0  0.73593986  0.6708280400000001  0.56092047  1.0000
  O   O2        1.0  0.26406028000000004  0.17082870000000003  0.43907918  1.0000
  O   O3        1.0  0.2701189900000001  0.8145398100000003  0.41372401  1.0000
  O   O4        1.0  0.72988002  0.31453874  0.58627886  1.0000
  O   O5        1.0  0.6736010100000001  0.9901075000000003  0.64888407  1.0000
  O   O6        1.0  0.32639955  0.49010967000000005  0.35111538  1.0000
  O   O7        1.0  0.73552445  0.4845906800000003  0.09964655  1.0000
  O   O8        1.0  0.26447571000000003  0.9845910300000003  0.90035402  1.0000
  O   O9        1.0  0.8246128400000001  0.7969226800000002  0.06050599  1.0000
  O   O10       1.0  0.17538763000000002  0.29692279  0.93949328  1.0000
  O   O11       1.0  0.7981626700000002  0.1671620900000001  0.09071466  1.0000
  O   O12       1.0  0.20183724  0.6671618400000001  0.9092849200000002  1.0000
  O   O13       1.0  0.5113956000000001  0.71454773  0.11900127  1.0000
  O   O14       1.0  0.48860481000000017  0.21454809  0.88099909  1.0000
  O   O15       1.0  0.00867696  0.3842407600000001  0.35649292  1.0000
  O   O16       1.0  0.9913238000000001  0.8842407600000002  0.64350688  1.0000
  Sr  Sr1       1.0  0.51479197  0.49734335000000013  0.74569017  1.0000
  Sr  Sr2       1.0  0.4852080200000001  0.9973435800000003  0.25430992  1.0000
  Sr  Sr3       1.0  0.9728631000000001  0.4905486000000001  0.7984875299999998  1.0000
  Sr  Sr4       1.0  0.027136850000000004  0.9905487100000001  0.20151220000000003  1.0000
