data_image0
_chemical_formula_structural       Al4O10Ti2
_chemical_formula_sum              "Al4 O10 Ti2"
_cell_length_a       3.6290373341183613
_cell_length_b       5.071366955705359
_cell_length_c       9.791005788000293
_cell_angle_alpha    90.00002883113318
_cell_angle_beta     89.99999975874131
_cell_angle_gamma    110.9652881611924

_space_group_name_H-M_alt    "P 1"
_space_group_IT_number       1

loop_
  _space_group_symop_operation_xyz
  'x, y, z'

loop_
  _atom_site_type_symbol
  _atom_site_label
  _atom_site_symmetry_multiplicity
  _atom_site_fract_x
  _atom_site_fract_y
  _atom_site_fract_z
  _atom_site_occupancy
  Al  Al1       1.0  0.14008726  0.28018421  0.94426129  1.0000
  Al  Al2       1.0  0.85991274  0.71981578  0.05573871  1.0000
  Al  Al3       1.0  0.14008717  0.2801840600000001  0.55573883  1.0000
  Al  Al4       1.0  0.8599128299999999  0.7198159400000002  0.4442611699999999  1.0000
  O   O1        1.0  0.76472122  0.5294206200000001  0.2500001  1.0000
  O   O2        1.0  0.23527877999999997  0.47057938  0.7499999  1.0000
  O   O3        1.0  0.04418679999999999  0.088303  0.3836108  1.0000
  O   O4        1.0  0.9558131999999999  0.9116970100000003  0.6163892  1.0000
  O   O5        1.0  0.04418721999999999  0.08830377  0.11638996000000001  1.0000
  O   O6        1.0  0.95581279  0.9116962300000001  0.8836100399999999  1.0000
  O   O7        1.0  0.3115843400000001  0.6231592100000002  0.43317437  1.0000
  O   O8        1.0  0.68841567  0.37684079  0.56682563  1.0000
  O   O9        1.0  0.31158437000000005  0.6231593100000001  0.06682566  1.0000
  O   O10       1.0  0.6884156299999998  0.37684069  0.93317434  1.0000
  Ti  Ti1       1.0  0.18395418  0.3678752900000001  0.24999877  1.0000
  Ti  Ti2       1.0  0.8160458200000001  0.6321247100000001  0.75000123  1.0000
