data_image0
_chemical_formula_structural       Fe2O10Ti4
_chemical_formula_sum              "Fe2 O10 Ti4"
_cell_length_a       3.795057309312179
_cell_length_b       5.3021808854709915
_cell_length_c       10.209534253197258
_cell_angle_alpha    90.00000754797856
_cell_angle_beta     89.99997686961372
_cell_angle_gamma    110.96640249635544

_space_group_name_H-M_alt    "P 1"
_space_group_IT_number       1

loop_
  _space_group_symop_operation_xyz
  'x, y, z'

loop_
  _atom_site_type_symbol
  _atom_site_label
  _atom_site_symmetry_multiplicity
  _atom_site_fract_x
  _atom_site_fract_y
  _atom_site_fract_z
  _atom_site_occupancy
  Fe  Fe1       1.0  0.8087312700000001  0.61751353  0.7500000100000002  1.0000
  Fe  Fe2       1.0  0.19126864999999998  0.38248632  0.25000001  1.0000
  O   O1        1.0  0.20795403000000004  0.41588786999999994  0.75000003  1.0000
  O   O2        1.0  0.7920458900000001  0.58411197  0.25000004  1.0000
  O   O3        1.0  0.9541377400000002  0.9082474200000001  0.61219701  1.0000
  O   O4        1.0  0.04585971  0.09175256  0.38780304  1.0000
  O   O5        1.0  0.9541416500000001  0.9082473  0.8878030400000001  1.0000
  O   O6        1.0  0.04586075  0.09175241  0.112197  1.0000
  O   O7        1.0  0.6863654800000001  0.37271251  0.55876712  1.0000
  O   O8        1.0  0.31363286  0.62728749  0.44123294  1.0000
  O   O9        1.0  0.6863670800000001  0.37271236  0.94123294  1.0000
  O   O10       1.0  0.31363441000000003  0.6272873200000001  0.05876712  1.0000
  Ti  Ti1       1.0  0.8651682800000001  0.73041342  0.06640785  1.0000
  Ti  Ti2       1.0  0.13483355  0.2695862800000001  0.9335922000000001  1.0000
  Ti  Ti3       1.0  0.8651666100000002  0.7304135700000001  0.43359221  1.0000
  Ti  Ti4       1.0  0.13483141  0.2695864199999999  0.56640784  1.0000
