data_image0
_chemical_formula_structural       La8O28Ti8
_chemical_formula_sum              "La8 O28 Ti8"
_cell_length_a       7.869913925850457
_cell_length_b       13.312244387683988
_cell_length_c       5.617821478000195
_cell_angle_alpha    89.99997829244026
_cell_angle_beta     89.99999759396343
_cell_angle_gamma    98.51251575894143

_space_group_name_H-M_alt    "P 1"
_space_group_IT_number       1

loop_
  _space_group_symop_operation_xyz
  'x, y, z'

loop_
  _atom_site_type_symbol
  _atom_site_label
  _atom_site_symmetry_multiplicity
  _atom_site_fract_x
  _atom_site_fract_y
  _atom_site_fract_z
  _atom_site_occupancy
  La  La1       1.0  0.7205005499999999  0.8843396300000002  0.7545007299999998  1.0000
  La  La2       1.0  0.27949942  0.11566032000000001  0.25450084999999995  1.0000
  La  La3       1.0  0.22676977999999998  0.903069  0.7600171999999998  1.0000
  La  La4       1.0  0.77323025  0.09693097  0.26001729  1.0000
  La  La5       1.0  0.6492573099999999  0.61320913  0.2942716  1.0000
  La  La6       1.0  0.35074275000000005  0.38679097000000007  0.7942716999999999  1.0000
  La  La7       1.0  0.1465994  0.57795336  0.34746639999999995  1.0000
  La  La8       1.0  0.85340061  0.42204671  0.8474664499999999  1.0000
  O   O1        1.0  0.22365051  0.8935360600000001  0.30476979  1.0000
  O   O2        1.0  0.7763494599999999  0.10646389  0.80476982  1.0000
  O   O3        1.0  0.7272349199999999  0.90811258  0.19154644  1.0000
  O   O4        1.0  0.27276506  0.09188739  0.69154656  1.0000
  O   O5        1.0  0.9663557399999999  0.9830933  0.52583847  1.0000
  O   O6        1.0  0.03364423999999999  0.01690666  0.025838559999999997  1.0000
  O   O7        1.0  0.5243189400000001  0.9806552600000001  0.52644172  1.0000
  O   O8        1.0  0.47568102  0.0193447  0.0264418  1.0000
  O   O9        1.0  0.8949647100000001  0.7756021600000002  0.46940024  1.0000
  O   O10       1.0  0.10503525  0.22439781000000003  0.96940025  1.0000
  O   O11       1.0  0.49344367000000006  0.7719873900000002  0.46222376999999987  1.0000
  O   O12       1.0  0.50655634  0.22801259  0.9622236699999999  1.0000
  O   O13       1.0  0.97166859  0.81415975  0.95799334  1.0000
  O   O14       1.0  0.028331409999999998  0.18584024  0.4579934  1.0000
  O   O15       1.0  0.43751014  0.81644238  0.9521234699999999  1.0000
  O   O16       1.0  0.5624898200000001  0.18355758000000003  0.4521234  1.0000
  O   O17       1.0  0.9162780999999999  0.59331523  0.05313191  1.0000
  O   O18       1.0  0.08372191  0.40668481  0.5531318299999999  1.0000
  O   O19       1.0  0.3806926500000001  0.6071303500000002  0.07224126  1.0000
  O   O20       1.0  0.61930738  0.3928696300000001  0.57224126  1.0000
  O   O21       1.0  0.8755732099999999  0.57144753  0.57171862  1.0000
  O   O22       1.0  0.12442681000000001  0.42855252000000016  0.07171856  1.0000
  O   O23       1.0  0.4059230200000001  0.56157651  0.58520419  1.0000
  O   O24       1.0  0.594077  0.4384235000000001  0.08520415  1.0000
  O   O25       1.0  0.67297931  0.6928781400000003  0.83707786  1.0000
  O   O26       1.0  0.32702069  0.30712185000000003  0.33707774999999995  1.0000
  O   O27       1.0  0.17432952  0.6964411400000002  0.7097896299999998  1.0000
  O   O28       1.0  0.8256705  0.30355888  0.20978967  1.0000
  Ti  Ti1       1.0  0.96897377  0.8825669900000002  0.26578458  1.0000
  Ti  Ti2       1.0  0.031026250000000002  0.11743303000000001  0.76578474  1.0000
  Ti  Ti3       1.0  0.4729500599999999  0.88060354  0.26461482  1.0000
  Ti  Ti4       1.0  0.52704994  0.11939648000000001  0.7646148999999999  1.0000
  Ti  Ti5       1.0  0.9235398200000001  0.6797080100000001  0.78993197  1.0000
  Ti  Ti6       1.0  0.07646022  0.32029203  0.28993202  1.0000
  Ti  Ti7       1.0  0.41687787  0.6758143  0.7950116099999999  1.0000
  Ti  Ti8       1.0  0.5831221499999999  0.32418569  0.29501172  1.0000
