data_image0
_chemical_formula_structural       Ca6Co4O12
_chemical_formula_sum              "Ca6 Co4 O12"
_cell_length_a       6.306250810542051
_cell_length_b       6.351179381696085
_cell_length_c       6.300289159978318
_cell_angle_alpha    92.46816098498975
_cell_angle_beta     92.41220013544198
_cell_angle_gamma    92.45875809788049

_space_group_name_H-M_alt    "P 1"
_space_group_IT_number       1

loop_
  _space_group_symop_operation_xyz
  'x, y, z'

loop_
  _atom_site_type_symbol
  _atom_site_label
  _atom_site_symmetry_multiplicity
  _atom_site_fract_x
  _atom_site_fract_y
  _atom_site_fract_z
  _atom_site_occupancy
  Ca  Ca1       1.0  0.3789139100000001  0.74903661  0.12067844000000011  1.0000
  Ca  Ca2       1.0  0.62098597  0.2510746  0.8792088800000001  1.0000
  Ca  Ca3       1.0  0.11634125  0.38362514000000003  0.7448075100000001  1.0000
  Ca  Ca4       1.0  0.75612839  0.1172544  0.38316565  1.0000
  Ca  Ca5       1.0  0.88369498  0.61645684  0.25510036  1.0000
  Ca  Ca6       1.0  0.24381212999999993  0.8828244500000001  0.61685576  1.0000
  Co  Co1       1.0  0.49996188999999996  0.49996664  0.5000750999999999  1.0000
  Co  Co2       1.0  7.604000000001283e-05  0.99993798  0.9999890900000002  1.0000
  Co  Co3       1.0  0.7424060900000002  0.75129237  0.7562743100000001  1.0000
  Co  Co4       1.0  0.25744544  0.24909056  0.24346648  1.0000
  O   O1        1.0  0.46053557999999994  0.58712705  0.7921331600000001  1.0000
  O   O2        1.0  0.29212355  0.08823317999999998  0.9622219900000001  1.0000
  O   O3        1.0  0.53927166  0.41256786  0.2079839799999999  1.0000
  O   O4        1.0  0.70799888  0.9114637299999999  0.037592419999999904  1.0000
  O   O5        1.0  0.78924112  0.45581557  0.58741554  1.0000
  O   O6        1.0  0.0866236800000001  0.9551002300000001  0.28956051999999993  1.0000
  O   O7        1.0  0.21071702  0.5443090900000002  0.41271367  1.0000
  O   O8        1.0  0.91343817  0.0449565799999999  0.7104377500000001  1.0000
  O   O9        1.0  0.59416015  0.78984519  0.4680645  1.0000
  O   O10       1.0  0.9671612399999999  0.28951965  0.09387397999999991  1.0000
  O   O11       1.0  0.4059788  0.2101152100000001  0.53203815  1.0000
  O   O12       1.0  0.03299321  0.71039623  0.9063519000000001  1.0000
