data_image0
_chemical_formula_structural       Mn6Co4O16
_chemical_formula_sum              "Mn6 Co4 O16"
_cell_length_a       5.818150163036126
_cell_length_b       4.979268093831776
_cell_length_c       9.40175475100391
_cell_angle_alpha    90.02989555757183
_cell_angle_beta     90.17724997810478
_cell_angle_gamma    90.031151975091

_space_group_name_H-M_alt    "P 1"
_space_group_IT_number       1

loop_
  _space_group_symop_operation_xyz
  'x, y, z'

loop_
  _atom_site_type_symbol
  _atom_site_label
  _atom_site_symmetry_multiplicity
  _atom_site_fract_x
  _atom_site_fract_y
  _atom_site_fract_z
  _atom_site_occupancy
  Mn  Mn1       1.0  0.7409449400000001  0.16383113  0.4999735  1.0000
  Mn  Mn2       1.0  0.26026019  0.16395756  0.50224629  1.0000
  Mn  Mn3       1.0  0.75937587  0.8362319999999998  0.0007929800000000001  1.0000
  Mn  Mn4       1.0  0.24021227000000003  0.8359459199999998  0.0005730400000000001  1.0000
  Mn  Mn5       1.0  0.00010143000000000059  0.67323019  0.49797678000000006  1.0000
  Mn  Mn6       1.0  0.49962345  0.32614437  0.99879102  1.0000
  Co  Co1       1.0  0.49893428999999995  0.6737843799999998  0.71438174  1.0000
  Co  Co2       1.0  0.0004769500000000002  0.32977067  0.21029893000000002  1.0000
  Co  Co3       1.0  0.9983173  0.33266819999999997  0.81734583  1.0000
  Co  Co4       1.0  0.4995823300000001  0.6657527999999999  0.3170516500000001  1.0000
  O   O1        1.0  0.24041158000000004  0.8408095399999999  0.60494909  1.0000
  O   O2        1.0  0.7606453399999998  0.8395762799999997  0.6040549100000001  1.0000
  O   O3        1.0  0.26174296  0.15847911999999997  0.10431123  1.0000
  O   O4        1.0  0.73900362  0.15879401  0.10443220000000002  1.0000
  O   O5        1.0  0.27712242  0.5180668999999999  0.8796522900000002  1.0000
  O   O6        1.0  0.72089841  0.51837224  0.8795938  1.0000
  O   O7        1.0  0.22092938  0.47970551999999983  0.37894304  1.0000
  O   O8        1.0  0.77912495  0.48119776999999997  0.37934893000000003  1.0000
  O   O9        1.0  0.50119462  0.31471492  0.60772981  1.0000
  O   O10       1.0  0.00027186000000000007  0.6902105199999999  0.10871121  1.0000
  O   O11       1.0  0.0009504  0.33951279  0.6075749100000001  1.0000
  O   O12       1.0  0.5001065000000001  0.6610182899999999  0.10681258000000002  1.0000
  O   O13       1.0  0.49955061000000006  0.99400067  0.89207279  1.0000
  O   O14       1.0  0.0007155800000000003  0.00512485  0.39424461000000005  1.0000
  O   O15       1.0  0.99911662  0.9643231900000001  0.8858621600000002  1.0000
  O   O16       1.0  0.50038612  0.03477636  0.38607131000000006  1.0000
