data_image0
_chemical_formula_structural       Mn2Ba3O8
_chemical_formula_sum              "Mn2 Ba3 O8"
_cell_length_a       5.80751059191475
_cell_length_b       5.807511073239111
_cell_length_c       7.9798581247591684
_cell_angle_alpha    68.65898641521513
_cell_angle_beta     68.65898729864293
_cell_angle_gamma    59.99970591194561

_space_group_name_H-M_alt    "P 1"
_space_group_IT_number       1

loop_
  _space_group_symop_operation_xyz
  'x, y, z'

loop_
  _atom_site_type_symbol
  _atom_site_label
  _atom_site_symmetry_multiplicity
  _atom_site_fract_x
  _atom_site_fract_y
  _atom_site_fract_z
  _atom_site_occupancy
  Mn  Mn1       1.0  0.5927466299999997  0.5927466500000002  0.22175676  1.0000
  Mn  Mn2       1.0  0.40725357999999967  0.40725361  0.7782424900000001  1.0000
  Ba  Ba1       1.0  0.9999976500000001  3.820000000137357e-06  0.99999968  1.0000
  Ba  Ba2       1.0  0.7926347099999996  0.7926354999999999  0.62216757  1.0000
  Ba  Ba3       1.0  0.20736464999999998  0.20736547  0.3778327400000001  1.0000
  O   O1        1.0  0.2731616599999998  0.7569150800000001  0.69680083  1.0000
  O   O2        1.0  0.2731928299999998  0.27319393  0.69672228  1.0000
  O   O3        1.0  0.7569147699999997  0.27316317  0.69679878  1.0000
  O   O4        1.0  0.7268368199999998  0.24308522999999996  0.30320162  1.0000
  O   O5        1.0  0.7268066899999996  0.72680744  0.3032770699999999  1.0000
  O   O6        1.0  0.24308488999999991  0.72683828  0.30319973  1.0000
  O   O7        1.0  0.6711171699999999  0.6711107400000003  0.98673888  1.0000
  O   O8        1.0  0.3288879399999998  0.3288810700000001  0.01326157  1.0000
