data_image0
_chemical_formula_structural       Fe4Mg2O8
_chemical_formula_sum              "Fe4 Mg2 O8"
_cell_length_a       6.03455027861776
_cell_length_b       6.03455757019113
_cell_length_c       6.014064164209225
_cell_angle_alpha    60.112166885651575
_cell_angle_beta     60.11228750414375
_cell_angle_gamma    59.7754770882904

_space_group_name_H-M_alt    "P 1"
_space_group_IT_number       1

loop_
  _space_group_symop_operation_xyz
  'x, y, z'

loop_
  _atom_site_type_symbol
  _atom_site_label
  _atom_site_symmetry_multiplicity
  _atom_site_fract_x
  _atom_site_fract_y
  _atom_site_fract_z
  _atom_site_occupancy
  Fe  Fe1       1.0  0.6250000199999997  0.62500002  0.1250000300000002  1.0000
  Fe  Fe2       1.0  0.6250000199999995  0.62500002  0.6250000100000003  1.0000
  Fe  Fe3       1.0  0.6250000199999998  0.1250000300000001  0.6250000200000001  1.0000
  Fe  Fe4       1.0  0.12500002999999968  0.6250000200000001  0.6250000200000001  1.0000
  Mg  Mg1       1.0  7.199999999999997e-07  7.4e-07  5.9e-07  1.0000
  Mg  Mg2       1.0  0.2499993299999999  0.24999932000000005  0.24999946000000003  1.0000
  O   O1        1.0  0.8639882199999994  0.8639885400000001  0.8659286400000002  1.0000
  O   O2        1.0  0.8639887299999996  0.8639884200000001  0.40609421  1.0000
  O   O3        1.0  0.8659286399999997  0.4060943100000001  0.8639883300000002  1.0000
  O   O4        1.0  0.4060943099999997  0.8659286400000004  0.8639886400000002  1.0000
  O   O5        1.0  0.8439057299999998  0.3840714000000001  0.3860114000000001  1.0000
  O   O6        1.0  0.38601130999999955  0.38601162000000017  0.8439058300000001  1.0000
  O   O7        1.0  0.3860118299999996  0.3860115100000002  0.3840714100000001  1.0000
  O   O8        1.0  0.38407139999999956  0.8439057200000003  0.38601171  1.0000
