data_image0
_chemical_formula_structural       In4Mg2O8
_chemical_formula_sum              "In4 Mg2 O8"
_cell_length_a       6.402876293878508
_cell_length_b       6.402875969316453
_cell_length_c       6.402875650411287
_cell_angle_alpha    60.000014886737745
_cell_angle_beta     60.00001717728549
_cell_angle_gamma    60.00001232950561

_space_group_name_H-M_alt    "P 1"
_space_group_IT_number       1

loop_
  _space_group_symop_operation_xyz
  'x, y, z'

loop_
  _atom_site_type_symbol
  _atom_site_label
  _atom_site_symmetry_multiplicity
  _atom_site_fract_x
  _atom_site_fract_y
  _atom_site_fract_z
  _atom_site_occupancy
  In  In1       1.0  0.6250003400000002  0.62500034  0.1249991099999999  1.0000
  In  In2       1.0  0.6250002999999997  0.62500031  0.6250002999999998  1.0000
  In  In3       1.0  0.6250003499999999  0.12499910000000007  0.6250003399999999  1.0000
  In  In4       1.0  0.12499907999999975  0.6250003400000004  0.6250003499999999  1.0000
  Mg  Mg1       1.0  9.400000000000001e-07  9.1e-07  7.899999999999998e-07  1.0000
  Mg  Mg2       1.0  0.24999917999999988  0.24999916000000014  0.24999924999999998  1.0000
  O   O1        1.0  0.8691617399999997  0.8691617500000004  0.8691617699999997  1.0000
  O   O2        1.0  0.8691616299999999  0.8691616500000002  0.39251526999999975  1.0000
  O   O3        1.0  0.8691616299999999  0.3925153300000003  0.8691616199999997  1.0000
  O   O4        1.0  0.3925153499999994  0.8691616500000002  0.8691616099999998  1.0000
  O   O5        1.0  0.8574997299999998  0.3808333800000001  0.3808334099999999  1.0000
  O   O6        1.0  0.38083337000000017  0.8574996900000001  0.3808334299999997  1.0000
  O   O7        1.0  0.38083338999999977  0.3808334200000001  0.8574997199999997  1.0000
  O   O8        1.0  0.3808332899999998  0.38083330000000015  0.3808332999999999  1.0000
