data_image0
_chemical_formula_structural       Mn2O4
_chemical_formula_sum              "Mn2 O4"
_cell_length_a       4.442204039908119
_cell_length_b       4.442204036993796
_cell_length_c       2.922581490498437
_cell_angle_alpha    90.00003539533589
_cell_angle_beta     89.99996275031565
_cell_angle_gamma    89.99576985384918

_space_group_name_H-M_alt    "P 1"
_space_group_IT_number       1

loop_
  _space_group_symop_operation_xyz
  'x, y, z'

loop_
  _atom_site_type_symbol
  _atom_site_label
  _atom_site_symmetry_multiplicity
  _atom_site_fract_x
  _atom_site_fract_y
  _atom_site_fract_z
  _atom_site_occupancy
  Mn  Mn1       1.0  2.999968232747188e-16  0.9999999999999998  1.0000000000000002  1.0000
  Mn  Mn2       1.0  0.5000000000000002  0.4999999999999999  0.5  1.0000
  O   O1        1.0  0.8054660100000003  0.1945339899999999  0.49999968999999994  1.0000
  O   O2        1.0  0.1945339900000002  0.8054660099999998  0.5000003100000001  1.0000
  O   O3        1.0  0.6945347700000003  0.6945347699999997  1.0  1.0000
  O   O4        1.0  0.3054652300000001  0.30546523  0.0  1.0000
