data_image0
_chemical_formula_structural       Sr4Mn4O10
_chemical_formula_sum              "Sr4 Mn4 O10"
_cell_length_a       5.588107894000048
_cell_length_b       10.966512847000006
_cell_length_c       3.8521671360000127
_cell_angle_alpha    89.99999881815938
_cell_angle_beta     90.00000175081671
_cell_angle_gamma    89.99999211903197

_space_group_name_H-M_alt    "P 1"
_space_group_IT_number       1

loop_
  _space_group_symop_operation_xyz
  'x, y, z'

loop_
  _atom_site_type_symbol
  _atom_site_label
  _atom_site_symmetry_multiplicity
  _atom_site_fract_x
  _atom_site_fract_y
  _atom_site_fract_z
  _atom_site_occupancy
  Sr  Sr1       1.0  0.7840910299999999  0.13387842  0.9999992700000001  1.0000
  Sr  Sr2       1.0  0.21590909  0.8661215700000001  0.9999992800000002  1.0000
  Sr  Sr3       1.0  0.28409092  0.36612158000000017  0.99999928  1.0000
  Sr  Sr4       1.0  0.71590903  0.6338784199999999  0.9999992600000001  1.0000
  Mn  Mn1       1.0  0.7586874399999999  0.3772334700000001  0.49999927000000016  1.0000
  Mn  Mn2       1.0  0.24131267  0.62276662  0.49999927000000016  1.0000
  Mn  Mn3       1.0  0.25868727999999996  0.12276658000000001  0.49999927  1.0000
  Mn  Mn4       1.0  0.7413125699999997  0.87723343  0.49999927000000016  1.0000
  O   O1        1.0  0.7954896999999999  0.40053814  0.9999992800000002  1.0000
  O   O2        1.0  0.20451028999999998  0.59946187  0.9999992700000001  1.0000
  O   O3        1.0  0.29548975999999993  0.09946187000000001  0.9999992800000002  1.0000
  O   O4        1.0  0.7045103399999998  0.9005381400000002  0.9999992700000001  1.0000
  O   O5        1.0  0.0286381  0.2707259  0.49999929  1.0000
  O   O6        1.0  0.9713622  0.729274  0.49999928  1.0000
  O   O7        1.0  0.5286378399999999  0.22927402000000002  0.49999928  1.0000
  O   O8        1.0  0.47136199  0.77072592  0.49999928  1.0000
  O   O9        1.0  0.49999993  0.5000000199999999  0.4999992400000002  1.0000
  O   O10       1.0  1.5e-07  5e-08  0.4999992300000001  1.0000
