data_image0
_chemical_formula_structural       La4O12Y4
_chemical_formula_sum              "La4 O12 Y4"
_cell_length_a       6.195617633008227
_cell_length_b       8.709337374007156
_cell_length_c       5.9745810190000626
_cell_angle_alpha    90.0000050932234
_cell_angle_beta     90.00000501810129
_cell_angle_gamma    90.00016578374623

_space_group_name_H-M_alt    "P 1"
_space_group_IT_number       1

loop_
  _space_group_symop_operation_xyz
  'x, y, z'

loop_
  _atom_site_type_symbol
  _atom_site_label
  _atom_site_symmetry_multiplicity
  _atom_site_fract_x
  _atom_site_fract_y
  _atom_site_fract_z
  _atom_site_occupancy
  La  La1       1.0  0.050306050000000005  0.7500006299999998  0.4819504600000001  1.0000
  La  La2       1.0  0.5503035500000002  0.7500007300000001  0.01804988  1.0000
  La  La3       1.0  0.9496961100000002  0.24999977000000004  0.51804872  1.0000
  La  La4       1.0  0.44969383000000007  0.2499999499999999  0.9819516800000001  1.0000
  O   O1        1.0  0.56546046  0.25000022  0.3660711800000001  1.0000
  O   O2        1.0  0.06545915000000001  0.25000027  0.13392926  1.0000
  O   O3        1.0  0.43454074  0.74999977  0.6339297000000002  1.0000
  O   O4        1.0  0.9345393900000001  0.74999982  0.8660707700000002  1.0000
  O   O5        1.0  0.69545266  0.4275580900000001  0.8066789700000001  1.0000
  O   O6        1.0  0.19545115  0.07244168  0.6933202500000002  1.0000
  O   O7        1.0  0.30454792000000014  0.92755805  0.19332062  1.0000
  O   O8        1.0  0.8045483100000002  0.5724414300000003  0.3066797600000001  1.0000
  O   O9        1.0  0.30454909000000013  0.5724411300000001  0.19331989000000002  1.0000
  O   O10       1.0  0.8045475000000002  0.9275580900000001  0.3066796700000001  1.0000
  O   O11       1.0  0.6954515700000001  0.07244161  0.8066801200000001  1.0000
  O   O12       1.0  0.19545190000000004  0.4275584099999999  0.6933206600000001  1.0000
  Y   Y1        1.0  0.49999804000000003  0.50000083  0.4999983000000001  1.0000
  Y   Y2        1.0  2.3e-06  6.9e-07  9.3e-07  1.0000
  Y   Y3        1.0  0.49999770000000016  0.99999932  0.4999984100000001  1.0000
  Y   Y4        1.0  2.59e-06  0.49999952999999997  7.700000000000001e-07  1.0000
