data_image0
_chemical_formula_structural       Sr6Co5O15
_chemical_formula_sum              "Sr6 Co5 O15"
_cell_length_a       6.937160346888481
_cell_length_b       6.928481738504873
_cell_length_c       6.943169787497643
_cell_angle_alpha    87.87351645486731
_cell_angle_beta     87.72079569362191
_cell_angle_gamma    87.64473492427611

_space_group_name_H-M_alt    "P 1"
_space_group_IT_number       1

loop_
  _space_group_symop_operation_xyz
  'x, y, z'

loop_
  _atom_site_type_symbol
  _atom_site_label
  _atom_site_symmetry_multiplicity
  _atom_site_fract_x
  _atom_site_fract_y
  _atom_site_fract_z
  _atom_site_occupancy
  Sr  Sr1       1.0  0.3147743800000001  0.6724604900000001  0.9711954300000001  1.0000
  Sr  Sr2       1.0  0.6749105699999998  0.9740148599999999  0.31561415  1.0000
  Sr  Sr3       1.0  0.97384711  0.31408006000000005  0.6765121700000001  1.0000
  Sr  Sr4       1.0  0.13860867  0.8492551500000001  0.49049497  1.0000
  Sr  Sr5       1.0  0.8538155399999998  0.49291988  0.14168915  1.0000
  Sr  Sr6       1.0  0.49001819999999996  0.13954434000000002  0.8533547700000003  1.0000
  Co  Co1       1.0  0.5084064699999999  0.5000046  0.50640124  1.0000
  Co  Co2       1.0  0.0968871  0.09861809000000002  0.09720784  1.0000
  Co  Co3       1.0  0.90151333  0.9020059900000001  0.9022972100000002  1.0000
  Co  Co4       1.0  0.29686741  0.30051498  0.30373413  1.0000
  Co  Co5       1.0  0.7089521499999998  0.70898788  0.70732585  1.0000
  O   O1        1.0  0.8404772499999998  0.1510698  0.9999582300000003  1.0000
  O   O2        1.0  0.15055811999999988  0.9986374700000001  0.8412794800000001  1.0000
  O   O3        1.0  2.037999999999634e-05  0.84149096  0.15041866  1.0000
  O   O4        1.0  0.9711327499999998  0.65672893  0.7975227400000002  1.0000
  O   O5        1.0  0.6554072899999999  0.7983081799999999  0.9713486000000001  1.0000
  O   O6        1.0  0.79734523  0.9719505100000002  0.6572876000000002  1.0000
  O   O7        1.0  0.34075809999999995  0.0442122  0.21325523000000002  1.0000
  O   O8        1.0  0.2105402699999999  0.34114889  0.03684591000000001  1.0000
  O   O9        1.0  0.03757930999999999  0.21313252000000002  0.3404637  1.0000
  O   O10       1.0  0.45177041  0.74760378  0.6234059500000001  1.0000
  O   O11       1.0  0.7541036599999997  0.6301223900000001  0.4511672900000001  1.0000
  O   O12       1.0  0.6273871200000001  0.45111120000000005  0.7469102600000003  1.0000
  O   O13       1.0  0.30325938  0.56712393  0.32741052000000004  1.0000
  O   O14       1.0  0.32880161  0.30203763000000006  0.57090332  1.0000
  O   O15       1.0  0.5722571  0.3328913600000001  0.30599157000000005  1.0000
