data_image0
_chemical_formula_structural       Co5Ba5O14
_chemical_formula_sum              "Co5 Ba5 O14"
_cell_length_a       5.821036006010802
_cell_length_b       5.75874446002204
_cell_length_c       12.058499295463113
_cell_angle_alpha    89.12563673980513
_cell_angle_beta     90.00140902253473
_cell_angle_gamma    120.35908278240068

_space_group_name_H-M_alt    "P 1"
_space_group_IT_number       1

loop_
  _space_group_symop_operation_xyz
  'x, y, z'

loop_
  _atom_site_type_symbol
  _atom_site_label
  _atom_site_symmetry_multiplicity
  _atom_site_fract_x
  _atom_site_fract_y
  _atom_site_fract_z
  _atom_site_occupancy
  Co  Co1       1.0  0.9999647999999998  0.99994076  0.50000079  1.0000
  Co  Co2       1.0  0.9996926799999999  0.9994764400000001  0.71066514  1.0000
  Co  Co3       1.0  0.00029297000000000047  0.000502560000000001  0.28933458  1.0000
  Co  Co4       1.0  0.66850356  0.3370527300000001  0.8650220899999999  1.0000
  Co  Co5       1.0  0.3315351600000001  0.6630185800000001  0.13497866  1.0000
  Ba  Ba1       1.0  0.9999442399999999  4.1309999999997326e-05  0.9999995799999999  1.0000
  Ba  Ba2       1.0  0.6657974000000001  0.33155165  0.23072761  1.0000
  Ba  Ba3       1.0  0.3341964000000001  0.6684538100000001  0.7692702399999999  1.0000
  Ba  Ba4       1.0  0.66532802  0.33068336  0.57865011  1.0000
  Ba  Ba5       1.0  0.3346107400000001  0.6692151900000001  0.4213492799999999  1.0000
  O   O1        1.0  0.67018554  0.34019482  0.00916537  1.0000
  O   O2        1.0  0.33001367  0.6598873000000001  0.99083448  1.0000
  O   O3        1.0  0.3341875999999999  0.16851767999999998  0.8082038699999998  1.0000
  O   O4        1.0  0.8342616700000001  0.16852943000000004  0.80817905  1.0000
  O   O5        1.0  0.6658582800000001  0.8315706900000002  0.19179366999999997  1.0000
  O   O6        1.0  0.1657721900000001  0.8315679400000002  0.19179182  1.0000
  O   O7        1.0  0.8403004699999999  0.6806593500000001  0.8047947  1.0000
  O   O8        1.0  0.15974096  0.3194457500000001  0.19523841  1.0000
  O   O9        1.0  0.30069889  0.15503648000000003  0.40438242999999996  1.0000
  O   O10       1.0  0.85436575  0.15503735  0.40438492  1.0000
  O   O11       1.0  0.6992383299999998  0.84485391  0.59562334  1.0000
  O   O12       1.0  0.14555635  0.8448442800000001  0.59562018  1.0000
  O   O13       1.0  0.85348189  0.7069289500000002  0.3965554499999999  1.0000
  O   O14       1.0  0.14646974  0.2929803000000001  0.60343482  1.0000
