data_image0
_chemical_formula_structural       Co4O4
_chemical_formula_sum              "Co4 O4"
_cell_length_a       4.573858192326919
_cell_length_b       4.5738029795433865
_cell_length_c       5.626020430658589
_cell_angle_alpha    66.01614177663961
_cell_angle_beta     66.01561809646708
_cell_angle_gamma    89.9956489388198

_space_group_name_H-M_alt    "P 1"
_space_group_IT_number       1

loop_
  _space_group_symop_operation_xyz
  'x, y, z'

loop_
  _atom_site_type_symbol
  _atom_site_label
  _atom_site_symmetry_multiplicity
  _atom_site_fract_x
  _atom_site_fract_y
  _atom_site_fract_z
  _atom_site_occupancy
  Co  Co1       1.0  0.99999793  5.799999998899658e-07  0.9999443600000001  1.0000
  Co  Co2       1.0  0.24998831999999996  0.7499867500000001  0.49993484  1.0000
  Co  Co3       1.0  0.49999793  0.5000005800000001  0.9999443599999999  1.0000
  Co  Co4       1.0  0.74998832  0.24998676  0.4999348300000001  1.0000
  O   O1        1.0  0.12502617999999996  0.12502444  0.24991866  1.0000
  O   O2        1.0  0.6250261599999999  0.6250250800000001  0.24991866  1.0000
  O   O3        1.0  0.8749879100000003  0.37498792  0.7499325399999999  1.0000
  O   O4        1.0  0.3749872599999998  0.8749878900000001  0.74993255  1.0000
