data_image0
_chemical_formula_structural       Nb2O8In2
_chemical_formula_sum              "Nb2 O8 In2"
_cell_length_a       5.27382626534778
_cell_length_b       5.906255562000007
_cell_length_c       4.9112497838176195
_cell_angle_alpha    89.99999754335612
_cell_angle_beta     91.18170460742363
_cell_angle_gamma    90.00000009160607

_space_group_name_H-M_alt    "P 1"
_space_group_IT_number       1

loop_
  _space_group_symop_operation_xyz
  'x, y, z'

loop_
  _atom_site_type_symbol
  _atom_site_label
  _atom_site_symmetry_multiplicity
  _atom_site_fract_x
  _atom_site_fract_y
  _atom_site_fract_z
  _atom_site_occupancy
  Nb  Nb1       1.0  0.75  0.17256991  1e-08  1.0000
  Nb  Nb2       1.0  0.24999999  0.8274300900000002  0.9999999900000001  1.0000
  O   O1        1.0  0.9342679700000001  0.8952183700000002  0.21518402  1.0000
  O   O2        1.0  0.56573203  0.8952183500000003  0.78481601  1.0000
  O   O3        1.0  0.06573203  0.10478162000000002  0.78481598  1.0000
  O   O4        1.0  0.43426796000000006  0.10478166  0.21518398  1.0000
  O   O5        1.0  0.40225536000000006  0.62006677  0.26135471  1.0000
  O   O6        1.0  0.09774462  0.62006674  0.73864534  1.0000
  O   O7        1.0  0.59774464  0.3799332300000002  0.7386452900000001  1.0000
  O   O8        1.0  0.9022553800000002  0.37993326000000016  0.26135466  1.0000
  In  In1       1.0  0.75  0.67525864  0.50000001  1.0000
  In  In2       1.0  0.25  0.3247413699999999  0.49999999000000006  1.0000
