data_image0
_chemical_formula_structural       Fe4Co2O8
_chemical_formula_sum              "Fe4 Co2 O8"
_cell_length_a       6.023674355577608
_cell_length_b       6.0236864849547835
_cell_length_c       6.000179187064389
_cell_angle_alpha    60.12887659160903
_cell_angle_beta     60.12905947401952
_cell_angle_gamma    59.74205209789918

_space_group_name_H-M_alt    "P 1"
_space_group_IT_number       1

loop_
  _space_group_symop_operation_xyz
  'x, y, z'

loop_
  _atom_site_type_symbol
  _atom_site_label
  _atom_site_symmetry_multiplicity
  _atom_site_fract_x
  _atom_site_fract_y
  _atom_site_fract_z
  _atom_site_occupancy
  Fe  Fe1       1.0  0.62289265  0.6228928999999999  0.12898849  1.0000
  Fe  Fe2       1.0  0.62289261  0.6228923699999999  0.6252264400000002  1.0000
  Fe  Fe3       1.0  0.6247738799999999  0.12101142  0.62710718  1.0000
  Fe  Fe4       1.0  0.12101141000000008  0.6247738699999998  0.62710742  1.0000
  Co  Co1       1.0  0.9988186900000001  0.9988185799999998  0.0011815100000002001  1.0000
  Co  Co2       1.0  0.24881861999999988  0.24881872  0.2511813600000001  1.0000
  O   O1        1.0  0.86534936  0.86534971  0.8645965000000001  1.0000
  O   O2        1.0  0.8653496499999999  0.8653491099999999  0.4047046499999999  1.0000
  O   O3        1.0  0.8681535900000003  0.40654369000000024  0.8626524199999998  1.0000
  O   O4        1.0  0.4065437100000001  0.86815371  0.86265041  1.0000
  O   O5        1.0  0.84529537  0.3854033499999999  0.38465041  1.0000
  O   O6        1.0  0.3854036000000001  0.8452954100000001  0.3846508900000001  1.0000
  O   O7        1.0  0.38734963000000017  0.38734762  0.8434563399999998  1.0000
  O   O8        1.0  0.3873475799999999  0.38734987000000004  0.38184624999999994  1.0000
