data_image0
_chemical_formula_structural       Fe4O6
_chemical_formula_sum              "Fe4 O6"
_cell_length_a       5.478945732421253
_cell_length_b       5.478951384003456
_cell_length_c       5.4789479465197
_cell_angle_alpha    55.06736287637358
_cell_angle_beta     55.06743579663525
_cell_angle_gamma    55.0673135745229

_space_group_name_H-M_alt    "P 1"
_space_group_IT_number       1

loop_
  _space_group_symop_operation_xyz
  'x, y, z'

loop_
  _atom_site_type_symbol
  _atom_site_label
  _atom_site_symmetry_multiplicity
  _atom_site_fract_x
  _atom_site_fract_y
  _atom_site_fract_z
  _atom_site_occupancy
  Fe  Fe1       1.0  0.00012160999999999996  0.00012267  0.00012141000000000002  1.0000
  Fe  Fe2       1.0  0.29064583999999993  0.29064475  0.2906460100000001  1.0000
  Fe  Fe3       1.0  0.7906462599999999  0.7906459299999999  0.79064706  1.0000
  Fe  Fe4       1.0  0.5001212000000002  0.5001215299999999  0.50012039  1.0000
  O   O1        1.0  0.7021815599999999  0.08858105999999989  0.3953826200000001  1.0000
  O   O2        1.0  0.39538287  0.70218143  0.0885810100000001  1.0000
  O   O3        1.0  0.08858097000000004  0.39538288999999993  0.70218117  1.0000
  O   O4        1.0  0.89538257  0.5885806599999999  0.20218125000000003  1.0000
  O   O5        1.0  0.5885805500000001  0.20218116000000005  0.89538281  1.0000
  O   O6        1.0  0.2021812799999999  0.8953825200000001  0.5885809699999999  1.0000
