data_image0
_chemical_formula_structural       O20Ti4Y8
_chemical_formula_sum              "O20 Ti4 Y8"
_cell_length_a       10.565427843000013
_cell_length_b       3.760163190000021
_cell_length_c       11.45347058800006
_cell_angle_alpha    89.99999992207785
_cell_angle_beta     90.00000146155513
_cell_angle_gamma    89.99999996897729

_space_group_name_H-M_alt    "P 1"
_space_group_IT_number       1

loop_
  _space_group_symop_operation_xyz
  'x, y, z'

loop_
  _atom_site_type_symbol
  _atom_site_label
  _atom_site_symmetry_multiplicity
  _atom_site_fract_x
  _atom_site_fract_y
  _atom_site_fract_z
  _atom_site_occupancy
  O   O1        1.0  0.9943782900000002  0.24999998999999998  0.3948146399999999  1.0000
  O   O2        1.0  0.49437848  0.25000001000000005  0.10518528000000002  1.0000
  O   O3        1.0  0.00562157  0.7500000099999999  0.60518533  1.0000
  O   O4        1.0  0.5056216900000001  0.7499999899999998  0.89481463  1.0000
  O   O5        1.0  0.724786  0.24999998  0.45830515000000005  1.0000
  O   O6        1.0  0.22478617000000004  0.25000001  0.04169482  1.0000
  O   O7        1.0  0.2752138900000001  0.7500000099999999  0.54169479  1.0000
  O   O8        1.0  0.7752139600000002  0.74999999  0.9583051599999999  1.0000
  O   O9        1.0  0.75785258  0.24999998999999998  0.77033611  1.0000
  O   O10       1.0  0.25785249  0.24999999999999997  0.7296639199999999  1.0000
  O   O11       1.0  0.24214746  0.75000001  0.2296639  1.0000
  O   O12       1.0  0.7421474600000001  0.7499999999999999  0.27033611  1.0000
  O   O13       1.0  0.00904219  0.25000001  0.84418302  1.0000
  O   O14       1.0  0.50904154  0.24999998  0.65581723  1.0000
  O   O15       1.0  0.9909584400000001  0.7499999899999998  0.1558172  1.0000
  O   O16       1.0  0.49095779000000006  0.7500000199999999  0.34418281  1.0000
  O   O17       1.0  0.7661155200000003  0.24999998999999998  0.11726998000000001  1.0000
  O   O18       1.0  0.26611542  0.2500000199999999  0.38273004  1.0000
  O   O19       1.0  0.23388457000000004  0.75000001  0.88273008  1.0000
  O   O20       1.0  0.7338845000000003  0.7499999800000001  0.61726999  1.0000
  Ti  Ti1       1.0  0.6756811900000003  0.24999996999999996  0.62019494  1.0000
  Ti  Ti2       1.0  0.1756807  0.25000001999999993  0.87980498  1.0000
  Ti  Ti3       1.0  0.32431927  0.75000003  0.37980492  1.0000
  Ti  Ti4       1.0  0.8243188300000001  0.7499999800000001  0.12019494  1.0000
  Y   Y1        1.0  0.6132143800000001  0.2500000000000001  0.27865008  1.0000
  Y   Y2        1.0  0.11321441  0.24999999999999997  0.22134989  1.0000
  Y   Y3        1.0  0.38678556000000003  0.75  0.72134991  1.0000
  Y   Y4        1.0  0.8867856500000001  0.7499999899999998  0.7786501300000002  1.0000
  Y   Y5        1.0  0.6359873700000002  0.2499999899999999  0.9428817000000003  1.0000
  Y   Y6        1.0  0.13598725000000003  0.24999999999999997  0.55711829  1.0000
  Y   Y7        1.0  0.36401279  0.7500000099999999  0.057118310000000005  1.0000
  Y   Y8        1.0  0.8640126300000003  0.7499999899999998  0.44288173  1.0000
