data_image0
_chemical_formula_structural       Co8O20La8
_chemical_formula_sum              "Co8 O20 La8"
_cell_length_a       5.555339045286545
_cell_length_b       15.982154196406466
_cell_length_c       5.766646569853727
_cell_angle_alpha    90.01689548656019
_cell_angle_beta     90.00061663708625
_cell_angle_gamma    90.02412015184062

_space_group_name_H-M_alt    "P 1"
_space_group_IT_number       1

loop_
  _space_group_symop_operation_xyz
  'x, y, z'

loop_
  _atom_site_type_symbol
  _atom_site_label
  _atom_site_symmetry_multiplicity
  _atom_site_fract_x
  _atom_site_fract_y
  _atom_site_fract_z
  _atom_site_occupancy
  Co  Co1       1.0  0.5001543400000001  0.9996602099999998  0.49999009999999994  1.0000
  Co  Co2       1.0  0.9995059200000002  0.4998812000000001  0.0004073  1.0000
  Co  Co3       1.0  0.4996435300000002  0.49948807  0.4998330599999999  1.0000
  Co  Co4       1.0  0.00030349  5.7700000000000007e-05  0.9997583299999999  1.0000
  Co  Co5       1.0  0.44900100000000004  0.24997604000000004  0.55675703  1.0000
  Co  Co6       1.0  0.9489934800000002  0.24999923000000002  0.9432427299999999  1.0000
  Co  Co7       1.0  0.5497594000000002  0.7500011100000001  0.44276669  1.0000
  Co  Co8       1.0  0.04976238  0.7499250400000002  0.05724296  1.0000
  O   O1        1.0  0.7785017000000001  0.9834463599999999  0.27547939  1.0000
  O   O2        1.0  0.27830309  0.5165029400000001  0.22416331  1.0000
  O   O3        1.0  0.22102649999999996  0.48331419000000003  0.72414831  1.0000
  O   O4        1.0  0.7220658100000001  0.01659935  0.7756904799999998  1.0000
  O   O5        1.0  0.2220078700000001  0.01657552  0.7238674599999999  1.0000
  O   O6        1.0  0.7209606100000002  0.48333665000000003  0.7762724199999999  1.0000
  O   O7        1.0  0.7783218400000003  0.51648795  0.2766250599999999  1.0000
  O   O8        1.0  0.2785356300000001  0.9834572499999998  0.22372075  1.0000
  O   O9        1.0  0.5352820200000002  0.14176729000000002  0.42043428999999993  1.0000
  O   O10       1.0  0.03223409  0.35875295  0.0782068  1.0000
  O   O11       1.0  0.46542867000000027  0.64183786  0.5796982200000002  1.0000
  O   O12       1.0  0.9657653100000002  0.85815964  0.9203364599999999  1.0000
  O   O13       1.0  0.4674110100000002  0.85888415  0.57700908  1.0000
  O   O14       1.0  0.9670770500000003  0.6410991799999999  0.92296994  1.0000
  O   O15       1.0  0.5321487700000002  0.3587633  0.4220486399999999  1.0000
  O   O16       1.0  0.03519547  0.1417428  0.07931551  1.0000
  O   O17       1.0  0.09162413  0.25012303000000013  0.6193117799999999  1.0000
  O   O18       1.0  0.5916286400000003  0.25014221000000003  0.8807017299999998  1.0000
  O   O19       1.0  0.9103450200000003  0.7499170399999999  0.3825257499999999  1.0000
  O   O20       1.0  0.41034214  0.75008893  0.11747081  1.0000
  La  La1       1.0  0.9724311500000004  0.11196173000000001  0.4838941999999999  1.0000
  La  La2       1.0  0.4713436100000001  0.3880876  0.01577367  1.0000
  La  La3       1.0  0.02783058  0.61183605  0.51654048  1.0000
  La  La4       1.0  0.5280318800000001  0.8881088600000001  0.9835815399999999  1.0000
  La  La5       1.0  0.027610439999999997  0.88816555  0.51560018  1.0000
  La  La6       1.0  0.5274200600000002  0.6117819600000001  0.98429532  1.0000
  La  La7       1.0  0.9714577600000002  0.3880926799999999  0.4843529999999999  1.0000
  La  La8       1.0  0.47254748000000013  0.11195481000000002  0.01596561  1.0000
