data_image0
_chemical_formula_structural       Mn2Ni2O6
_chemical_formula_sum              "Mn2 Ni2 O6"
_cell_length_a       5.386200358000164
_cell_length_b       5.386140980521525
_cell_length_c       5.386084833901161
_cell_angle_alpha    54.82769819381872
_cell_angle_beta     54.82693865516918
_cell_angle_gamma    54.82715997210123

_space_group_name_H-M_alt    "P 1"
_space_group_IT_number       1

loop_
  _space_group_symop_operation_xyz
  'x, y, z'

loop_
  _atom_site_type_symbol
  _atom_site_label
  _atom_site_symmetry_multiplicity
  _atom_site_fract_x
  _atom_site_fract_y
  _atom_site_fract_z
  _atom_site_occupancy
  Mn  Mn1       1.0  0.8437937299999998  0.8437928499999998  0.8437950900000002  1.0000
  Mn  Mn2       1.0  0.15620627999999995  0.15620715999999998  0.15620492000000002  1.0000
  Ni  Ni1       1.0  0.6439378099999999  0.6439422500000002  0.6439467600000001  1.0000
  Ni  Ni2       1.0  0.3560621899999999  0.35605775000000006  0.3560532300000001  1.0000
  O   O1        1.0  0.7716939899999998  0.44110772000000004  0.0511765  1.0000
  O   O2        1.0  0.05119903999999978  0.77168355  0.4411071300000002  1.0000
  O   O3        1.0  0.44112813999999984  0.05118005999999991  0.7716755700000001  1.0000
  O   O4        1.0  0.22830600000000015  0.5588922799999998  0.9488235000000002  1.0000
  O   O5        1.0  0.9488009600000005  0.22831644999999987  0.55889287  1.0000
  O   O6        1.0  0.5588718499999997  0.9488199400000003  0.22832443000000013  1.0000
