data_image0
_chemical_formula_structural       Ba2O54Fe36
_chemical_formula_sum              "Ba2 O54 Fe36"
_cell_length_a       5.963830135300984
_cell_length_b       5.9575024349401025
_cell_length_c       33.45963647494269
_cell_angle_alpha    89.86191612634791
_cell_angle_beta     90.06400699675977
_cell_angle_gamma    120.07279141928522

_space_group_name_H-M_alt    "P 1"
_space_group_IT_number       1

loop_
  _space_group_symop_operation_xyz
  'x, y, z'

loop_
  _atom_site_type_symbol
  _atom_site_label
  _atom_site_symmetry_multiplicity
  _atom_site_fract_x
  _atom_site_fract_y
  _atom_site_fract_z
  _atom_site_occupancy
  Ba  Ba1       1.0  0.9981921699999998  0.99838949  0.25075532  1.0000
  Ba  Ba2       1.0  0.0007489599999999996  0.0006546899999999985  0.7499220300000001  1.0000
  O   O1        1.0  0.48394530999999996  0.5115526600000001  0.24951881  1.0000
  O   O2        1.0  0.51515067  0.48699755  0.7486443  1.0000
  O   O3        1.0  0.4842269599999999  0.9704893399999999  0.2495418  1.0000
  O   O4        1.0  0.9719130099999999  0.48735111  0.7490286900000002  1.0000
  O   O5        1.0  0.026630489999999993  0.5121706699999999  0.24901869000000001  1.0000
  O   O6        1.0  0.51444395  0.029883660000000003  0.74899076  1.0000
  O   O7        1.0  0.15813498999999998  0.8304337  0.3205092600000001  1.0000
  O   O8        1.0  0.8351668799999998  0.16471792  0.82076279  1.0000
  O   O9        1.0  0.15831665  0.3247478200000001  0.3206065  1.0000
  O   O10       1.0  0.32879504999999987  0.16425529  0.8210343900000001  1.0000
  O   O11       1.0  0.66767607  0.8319932800000001  0.32061791  1.0000
  O   O12       1.0  0.8363213499999999  0.67144429  0.82103299  1.0000
  O   O13       1.0  0.8411427499999999  0.16240315  0.67932206  1.0000
  O   O14       1.0  0.16802720000000004  0.8416159600000003  0.17919097000000003  1.0000
  O   O15       1.0  0.8399684799999998  0.6732716  0.6786011300000001  1.0000
  O   O16       1.0  0.67679019  0.8382814099999999  0.17993514000000002  1.0000
  O   O17       1.0  0.32933020999999996  0.16298929  0.6786434799999999  1.0000
  O   O18       1.0  0.16818084000000003  0.3265280500000002  0.17912488  1.0000
  O   O19       1.0  0.3357606300000001  0.6667095100000001  0.6800345800000002  1.0000
  O   O20       1.0  0.6715998299999998  0.3356900500000001  0.1810055  1.0000
  O   O21       1.0  0.6605934299999999  0.32896611  0.32213165000000005  1.0000
  O   O22       1.0  0.33490672999999993  0.6663366800000001  0.8232366600000001  1.0000
  O   O23       1.0  0.51387793  0.48988136000000004  0.38980218  1.0000
  O   O24       1.0  0.48537115999999997  0.5130618600000001  0.89059183  1.0000
  O   O25       1.0  0.5145237199999998  0.019235400000000003  0.38928905  1.0000
  O   O26       1.0  0.01887057000000012  0.5156643200000001  0.89019041  1.0000
  O   O27       1.0  0.97647088  0.48541004  0.3893754200000001  1.0000
  O   O28       1.0  0.4833434699999999  0.9820182200000002  0.8906792100000002  1.0000
  O   O29       1.0  0.49080306  0.51383582  0.61100763  1.0000
  O   O30       1.0  0.50741691  0.48425118999999994  0.11156107  1.0000
  O   O31       1.0  0.49475363999999994  0.9765052700000001  0.6111744500000001  1.0000
  O   O32       1.0  0.9749781099999999  0.48840842000000007  0.11193993  1.0000
  O   O33       1.0  0.027474490000000112  0.50951605  0.61072704  1.0000
  O   O34       1.0  0.50711927  0.024463820000000004  0.11159563  1.0000
  O   O35       1.0  0.004986459999999994  0.9995153700000002  0.38625962  1.0000
  O   O36       1.0  0.9942277999999998  0.004163869999999999  0.8867902  1.0000
  O   O37       1.0  0.00513395000000003  0.9990857100000001  0.61296377  1.0000
  O   O38       1.0  0.99189191  0.9968987100000001  0.11349427  1.0000
  O   O39       1.0  0.1801731000000001  0.8343774400000001  0.5370233  1.0000
  O   O40       1.0  0.83249722  0.18325131000000003  0.03809873  1.0000
  O   O41       1.0  0.17521362  0.35149334  0.5365875500000001  1.0000
  O   O42       1.0  0.3542714  0.17876960000000003  0.0376686  1.0000
  O   O43       1.0  0.65300728  0.8343793  0.53691988  1.0000
  O   O44       1.0  0.8328424399999999  0.65240637  0.03806205  1.0000
  O   O45       1.0  0.8184389199999996  0.16301831999999997  0.46300783999999995  1.0000
  O   O46       1.0  0.16417110999999995  0.82143021  0.96425511  1.0000
  O   O47       1.0  0.82232822  0.6463089200000001  0.46347448  1.0000
  O   O48       1.0  0.64750144  0.8264285  0.9640982399999999  1.0000
  O   O49       1.0  0.3430296099999999  0.16286924000000003  0.4629357299999999  1.0000
  O   O50       1.0  0.16438643  0.34920907000000007  0.96410208  1.0000
  O   O51       1.0  0.3344375499999999  0.67213431  0.46480736  1.0000
  O   O52       1.0  0.6738074199999999  0.3388746500000001  0.9650780400000002  1.0000
  O   O53       1.0  0.6629412400000001  0.3278810400000001  0.5360418400000001  1.0000
  O   O54       1.0  0.3257704  0.66423684  0.03705114000000001  1.0000
  Fe  Fe1       1.0  0.3340431200000001  0.6674661500000001  0.74064961  1.0000
  Fe  Fe2       1.0  0.6653657699999999  0.33202143  0.24193643000000004  1.0000
  Fe  Fe3       1.0  0.33882122  0.6682222799999998  0.2920418699999999  1.0000
  Fe  Fe4       1.0  0.6709901599999998  0.32947593  0.7929161300000002  1.0000
  Fe  Fe5       1.0  0.6663304999999999  0.33602319  0.7087837  1.0000
  Fe  Fe6       1.0  0.32933148999999995  0.66425065  0.20887021  1.0000
  Fe  Fe7       1.0  0.9941638099999998  0.99213316  0.44310001  1.0000
  Fe  Fe8       1.0  0.9956274699999996  0.000368069999999998  0.9436998300000001  1.0000
  Fe  Fe9       1.0  0.0009779  0.004459409999999998  0.5557978200000001  1.0000
  Fe  Fe10      1.0  0.00421794  0.0035929300000000003  0.05680004  1.0000
  Fe  Fe11      1.0  0.33443224  0.6730768999999999  0.57303102  1.0000
  Fe  Fe12      1.0  0.6679015699999998  0.3351379  0.07364965  1.0000
  Fe  Fe13      1.0  0.6605019899999999  0.32651868  0.42595897000000005  1.0000
  Fe  Fe14      1.0  0.33018854  0.6686282499999999  0.92552137  1.0000
  Fe  Fe15      1.0  0.33008758  0.6628273900000002  0.40732418  1.0000
  Fe  Fe16      1.0  0.66690512  0.33458445  0.9078986700000001  1.0000
  Fe  Fe17      1.0  0.6680152299999998  0.3360034900000002  0.59331485  1.0000
  Fe  Fe18      1.0  0.33515453  0.66830878  0.09354948  1.0000
  Fe  Fe19      1.0  0.49862030000000007  0.49777567000000017  0.49984664000000006  1.0000
  Fe  Fe20      1.0  0.50025662  0.5043507800000002  0.00018081  1.0000
  Fe  Fe21      1.0  0.5007780499999999  0.0029059900000000002  0.49960943000000013  1.0000
  Fe  Fe22      1.0  0.0034790400000000864  0.50376479  0.00030365  1.0000
  Fe  Fe23      1.0  0.9964811399999998  0.4972416399999999  0.49985603999999995  1.0000
  Fe  Fe24      1.0  0.49995748000000007  0.9996457600000002  0.00028846  1.0000
  Fe  Fe25      1.0  0.16342771000000006  0.8398164900000002  0.65046491  1.0000
  Fe  Fe26      1.0  0.8386243799999998  0.16592146  0.15022401  1.0000
  Fe  Fe27      1.0  0.16728756999999997  0.3330336  0.64929666  1.0000
  Fe  Fe28      1.0  0.33338475  0.16710136000000003  0.15086689  1.0000
  Fe  Fe29      1.0  0.67043661  0.8362696099999999  0.6493808000000001  1.0000
  Fe  Fe30      1.0  0.8387171399999998  0.67357486  0.15023964  1.0000
  Fe  Fe31      1.0  0.8346287199999999  0.16535788  0.34943265  1.0000
  Fe  Fe32      1.0  0.17091735000000016  0.8293524300000004  0.84981434  1.0000
  Fe  Fe33      1.0  0.83483478  0.6654761300000002  0.34944126  1.0000
  Fe  Fe34      1.0  0.6750884  0.8307665200000001  0.84960501  1.0000
  Fe  Fe35      1.0  0.3295955099999999  0.16295994  0.34882012  1.0000
  Fe  Fe36      1.0  0.16839926999999996  0.32471785  0.8496190900000001  1.0000
