data_image0
_chemical_formula_structural       Mn6Ba2O12
_chemical_formula_sum              "Mn6 Ba2 O12"
_cell_length_a       4.093328921295725
_cell_length_b       5.713293363789329
_cell_length_c       10.677323771292905
_cell_angle_alpha    95.48417460311089
_cell_angle_beta     101.13413420582923
_cell_angle_gamma    90.03775186395845

_space_group_name_H-M_alt    "P 1"
_space_group_IT_number       1

loop_
  _space_group_symop_operation_xyz
  'x, y, z'

loop_
  _atom_site_type_symbol
  _atom_site_label
  _atom_site_symmetry_multiplicity
  _atom_site_fract_x
  _atom_site_fract_y
  _atom_site_fract_z
  _atom_site_occupancy
  Mn  Mn1       1.0  0.70704184  0.3754365199999999  0.41530231999999984  1.0000
  Mn  Mn2       1.0  0.29503419999999997  0.6469721599999999  0.5906628499999999  1.0000
  Mn  Mn3       1.0  0.70739183  0.8756099199999999  0.41583236999999995  1.0000
  Mn  Mn4       1.0  0.29503678999999994  0.14628771999999998  0.5890022599999999  1.0000
  Mn  Mn5       1.0  0.5602636699999999  0.76840709  0.12642419999999996  1.0000
  Mn  Mn6       1.0  0.42120508999999984  0.20602524000000003  0.8718096599999999  1.0000
  Ba  Ba1       1.0  0.06475175  0.26768816  0.13432961  1.0000
  Ba  Ba2       1.0  0.92826605  0.7038971899999998  0.8598769099999999  1.0000
  O   O1        1.0  0.7740069200000002  0.6471651799999999  0.54859723  1.0000
  O   O2        1.0  0.22869060999999993  0.37699788000000006  0.45826732999999986  1.0000
  O   O3        1.0  0.7729097799999999  0.14796749999999997  0.5456584299999999  1.0000
  O   O4        1.0  0.22916855999999997  0.87345348  0.45915217999999997  1.0000
  O   O5        1.0  0.06026282  0.7671495099999999  0.12058285  1.0000
  O   O6        1.0  0.9488487299999999  0.20102252  0.8683789999999998  1.0000
  O   O7        1.0  0.64631266  0.10373974  0.29453193  1.0000
  O   O8        1.0  0.35776256  0.9232797899999998  0.7143443699999998  1.0000
  O   O9        1.0  0.64446498  0.60596885  0.29077676999999996  1.0000
  O   O10       1.0  0.3587901299999999  0.41001422  0.7156856199999999  1.0000
  O   O11       1.0  0.4982294099999998  0.46428093999999986  0.9883746499999998  1.0000
  O   O12       1.0  0.5015613  0.9886349699999998  0.99240888  1.0000
