data_image0
_chemical_formula_structural       Fe2O6Ti2
_chemical_formula_sum              "Fe2 O6 Ti2"
_cell_length_a       5.128743404047956
_cell_length_b       5.152215736842791
_cell_length_c       5.633923486050391
_cell_angle_alpha    61.71966221674039
_cell_angle_beta     62.88513106652523
_cell_angle_gamma    60.228022567750585

_space_group_name_H-M_alt    "P 1"
_space_group_IT_number       1

loop_
  _space_group_symop_operation_xyz
  'x, y, z'

loop_
  _atom_site_type_symbol
  _atom_site_label
  _atom_site_symmetry_multiplicity
  _atom_site_fract_x
  _atom_site_fract_y
  _atom_site_fract_z
  _atom_site_occupancy
  Fe  Fe1       1.0  0.6455059899999998  0.6479201700000001  0.0634927  1.0000
  Fe  Fe2       1.0  0.34853334999999974  0.35240050000000006  0.9358088300000001  1.0000
  O   O1        1.0  0.06028247999999994  0.43319997  0.73333106  1.0000
  O   O2        1.0  0.9479214699999997  0.5642370500000004  0.26942172  1.0000
  O   O3        1.0  0.7782352799999996  0.03951534000000002  0.74074218  1.0000
  O   O4        1.0  0.22041285999999974  0.9533868700000001  0.26896075  1.0000
  O   O5        1.0  0.44094152999999997  0.7774230800000003  0.7330332499999999  1.0000
  O   O6        1.0  0.5619569299999999  0.23283535  0.25518419  1.0000
  Ti  Ti1       1.0  0.8520272799999998  0.8521154100000001  0.44073282  1.0000
  Ti  Ti2       1.0  0.14418404999999995  0.14697084000000013  0.5592854899999999  1.0000
