data_image0
_chemical_formula_structural       Co2O6La2
_chemical_formula_sum              "Co2 O6 La2"
_cell_length_a       5.472791537165852
_cell_length_b       5.517556229172043
_cell_length_c       5.5175835610382045
_cell_angle_alpha    60.48533348557612
_cell_angle_beta     61.992593354679094
_cell_angle_gamma    61.992007424431165

_space_group_name_H-M_alt    "P 1"
_space_group_IT_number       1

loop_
  _space_group_symop_operation_xyz
  'x, y, z'

loop_
  _atom_site_type_symbol
  _atom_site_label
  _atom_site_symmetry_multiplicity
  _atom_site_fract_x
  _atom_site_fract_y
  _atom_site_fract_z
  _atom_site_occupancy
  Co  Co1       1.0  6.000000001185057e-07  1.499999998998375e-07  0.5000001  1.0000
  Co  Co2       1.0  0.50000057  0.50000011  1.6e-07  1.0000
  O   O1        1.0  0.7500567900000004  0.31225637999999983  0.68775273  1.0000
  O   O2        1.0  0.24994449000000007  0.68774392  0.31224756  1.0000
  O   O3        1.0  0.3210174400000001  0.19314102999999988  0.24453454  1.0000
  O   O4        1.0  0.17903382000000018  0.7553997399999999  0.8068224799999999  1.0000
  O   O5        1.0  0.6789838299999998  0.8068592099999999  0.7554658100000001  1.0000
  O   O6        1.0  0.8209674800000002  0.24460062999999999  0.19317775  1.0000
  La  La1       1.0  0.7500147400000001  0.7500192000000001  0.2499612899999999  1.0000
  La  La2       1.0  0.24998643000000015  0.24998093999999996  0.75003887  1.0000
