data_image0
_chemical_formula_structural       Sr8Mn4O16
_chemical_formula_sum              "Sr8 Mn4 O16"
_cell_length_a       7.668366760972936
_cell_length_b       7.668366127798685
_cell_length_c       6.861607545960292
_cell_angle_alpha    106.22485484293753
_cell_angle_beta     106.2247548681468
_cell_angle_gamma    89.9959528755209

_space_group_name_H-M_alt    "P 1"
_space_group_IT_number       1

loop_
  _space_group_symop_operation_xyz
  'x, y, z'

loop_
  _atom_site_type_symbol
  _atom_site_label
  _atom_site_symmetry_multiplicity
  _atom_site_fract_x
  _atom_site_fract_y
  _atom_site_fract_z
  _atom_site_occupancy
  Sr  Sr1       1.0  0.3221068300000001  0.3221075500000001  0.28843997  1.0000
  Sr  Sr2       1.0  0.17789321999999996  0.17789249000000001  0.71156003  1.0000
  Sr  Sr3       1.0  0.82210689  0.32210760000000005  0.28844015  1.0000
  Sr  Sr4       1.0  0.67789317  0.17789244000000004  0.7115598300000001  1.0000
  Sr  Sr5       1.0  0.32210689  0.8221076100000001  0.2884401700000001  1.0000
  Sr  Sr6       1.0  0.17789317  0.6778924500000001  0.7115598500000001  1.0000
  Sr  Sr7       1.0  0.8221068399999999  0.8221075600000001  0.2884399600000001  1.0000
  Sr  Sr8       1.0  0.6778932199999999  0.6778924900000002  0.7115600300000001  1.0000
  Mn  Mn1       1.0  2.999999999497891e-08  0.5000000000000002  1.0  1.0000
  Mn  Mn2       1.0  0.50000003  0.5000000000000002  1.0000000000000002  1.0000
  Mn  Mn3       1.0  3e-08  0.0  0.0  1.0000
  Mn  Mn4       1.0  0.50000003  0.0  0.0  1.0000
  O   O1        1.0  0.2500010500000001  0.4999999800000002  0.9999999700000002  1.0000
  O   O2        1.0  0.49999993  0.2500011200000001  5e-08  1.0000
  O   O3        1.0  0.7499988600000002  0.4999999800000002  0.9999999500000001  1.0000
  O   O4        1.0  0.9999999099999999  0.24999893000000004  4.000000000000001e-08  1.0000
  O   O5        1.0  0.24999885999999996  0.9999999800000002  0.9999999500000001  1.0000
  O   O6        1.0  0.49999990999999994  0.7499988900000001  3.0000000000000004e-08  1.0000
  O   O7        1.0  0.75000105  0.9999999900000003  0.9999999700000001  1.0000
  O   O8        1.0  0.9999999299999999  0.7500010700000003  5e-08  1.0000
  O   O9        1.0  0.42187145  0.42187077000000006  0.6874748200000002  1.0000
  O   O10       1.0  0.07812860999999999  0.07812921  0.31252522  1.0000
  O   O11       1.0  0.92187121  0.4218705300000002  0.6874738300000002  1.0000
  O   O12       1.0  0.57812885  0.07812945000000002  0.3125262  1.0000
  O   O13       1.0  0.4218712  0.9218705200000002  0.6874738100000002  1.0000
  O   O14       1.0  0.07812884000000002  0.5781294500000003  0.31252617000000005  1.0000
  O   O15       1.0  0.9218714399999998  0.9218707700000002  0.6874747900000001  1.0000
  O   O16       1.0  0.5781285899999999  0.5781292000000002  0.3125251800000001  1.0000
