data_image0
_chemical_formula_structural       Al24Ca12O48
_chemical_formula_sum              "Al24 Ca12 O48"
_cell_length_a       8.783587111339953
_cell_length_b       8.213996637000609
_cell_length_c       15.348910299284356
_cell_angle_alpha    90.00003139768498
_cell_angle_beta     90.22985956732703
_cell_angle_gamma    90.00001061628777

_space_group_name_H-M_alt    "P 1"
_space_group_IT_number       1

loop_
  _space_group_symop_operation_xyz
  'x, y, z'

loop_
  _atom_site_type_symbol
  _atom_site_label
  _atom_site_symmetry_multiplicity
  _atom_site_fract_x
  _atom_site_fract_y
  _atom_site_fract_z
  _atom_site_occupancy
  Al  Al1       1.0  0.07542374  0.8302813399999999  0.26231809  1.0000
  Al  Al2       1.0  0.57542336  0.66971884  0.7623206  1.0000
  Al  Al3       1.0  0.9245766100000002  0.16971848000000003  0.73768218  1.0000
  Al  Al4       1.0  0.42457633999999983  0.3302810700000001  0.23767912  1.0000
  Al  Al5       1.0  0.08303933999999999  0.22494838  0.26723859999999994  1.0000
  Al  Al6       1.0  0.58303886  0.27505102000000003  0.76724218  1.0000
  Al  Al7       1.0  0.91696102  0.77505133  0.73276086  1.0000
  Al  Al8       1.0  0.4169607799999999  0.7249487899999999  0.23275835  1.0000
  Al  Al9       1.0  0.9006899700000001  0.3318462300000001  0.42187696999999996  1.0000
  Al  Al10      1.0  0.40068893000000005  0.16815424  0.92187842  1.0000
  Al  Al11      1.0  0.09931035  0.6681542899999999  0.57812244  1.0000
  Al  Al12      1.0  0.59931076  0.83184662  0.07812215999999998  1.0000
  Al  Al13      1.0  0.88827468  0.72088239  0.42112418  1.0000
  Al  Al14      1.0  0.38827323  0.77911828  0.92112589  1.0000
  Al  Al15      1.0  0.11172665  0.2791182899999999  0.5788753499999999  1.0000
  Al  Al16      1.0  0.6117254300000001  0.22088271  0.07887458  1.0000
  Al  Al17      1.0  0.56230156  0.22732907  0.40917339  1.0000
  Al  Al18      1.0  0.062303  0.27267174  0.9091754199999998  1.0000
  Al  Al19      1.0  0.43769761  0.7726707699999998  0.59082586  1.0000
  Al  Al20      1.0  0.9376978300000001  0.7273282500000001  0.09082532  1.0000
  Al  Al21      1.0  0.5611909899999998  0.8358814599999999  0.4076825900000001  1.0000
  Al  Al22      1.0  0.06119055999999999  0.6641171900000001  0.90768446  1.0000
  Al  Al23      1.0  0.43880905  0.16411804  0.59231725  1.0000
  Al  Al24      1.0  0.9388093299999999  0.33588242000000007  0.09231568999999999  1.0000
  Ca  Ca1       1.0  0.2602876  0.53511929  0.4099984500000001  1.0000
  Ca  Ca2       1.0  0.76028753  0.96488112  0.9099993599999999  1.0000
  Ca  Ca3       1.0  0.7397124199999999  0.46488106  0.59000137  1.0000
  Ca  Ca4       1.0  0.23971236  0.03511935  0.09000076999999998  1.0000
  Ca  Ca5       1.0  0.23258664999999998  0.9672776799999999  0.42966062  1.0000
  Ca  Ca6       1.0  0.7325867899999999  0.5327222900000002  0.9296616199999999  1.0000
  Ca  Ca7       1.0  0.76741336  0.03272193  0.57033896  1.0000
  Ca  Ca8       1.0  0.26741322  0.46727753  0.07033874  1.0000
  Ca  Ca9       1.0  0.76094828  0.04856306  0.25322188  1.0000
  Ca  Ca10      1.0  0.26094835999999993  0.4514372400000001  0.75322294  1.0000
  Ca  Ca11      1.0  0.23905177999999996  0.95143673  0.74677819  1.0000
  Ca  Ca12      1.0  0.73905162  0.5485626100000001  0.24677688  1.0000
  O   O1        1.0  0.42337231999999997  0.7397749799999997  0.47598855999999995  1.0000
  O   O2        1.0  0.9233720499999999  0.7602250799999999  0.97598817  1.0000
  O   O3        1.0  0.57662807  0.2602248600000001  0.52401181  1.0000
  O   O4        1.0  0.07662752  0.23977495000000001  0.02401144  1.0000
  O   O5        1.0  0.48355322999999983  0.03215892000000001  0.38986885999999993  1.0000
  O   O6        1.0  0.98355266  0.46784175  0.88986833  1.0000
  O   O7        1.0  0.5164471400000001  0.9678415899999999  0.61013146  1.0000
  O   O8        1.0  0.01644688  0.53215895  0.11013139999999999  1.0000
  O   O9        1.0  0.44320765999999995  0.36401798000000013  0.3512491099999999  1.0000
  O   O10       1.0  0.94320682  0.13598093  0.85124683  1.0000
  O   O11       1.0  0.55679276  0.6359816  0.6487514699999999  1.0000
  O   O12       1.0  0.056792859999999994  0.8640187400000001  0.14875263  1.0000
  O   O13       1.0  0.2507403300000001  0.7452755100000001  0.29744883999999994  1.0000
  O   O14       1.0  0.7507408399999999  0.7547255  0.79744793  1.0000
  O   O15       1.0  0.7492599800000002  0.2547249  0.7025511799999999  1.0000
  O   O16       1.0  0.24925883999999998  0.2452749  0.20255205999999998  1.0000
  O   O17       1.0  0.06533141  0.7602297899999999  0.47424946999999995  1.0000
  O   O18       1.0  0.56533102  0.7397700299999999  0.9742493799999999  1.0000
  O   O19       1.0  0.9346688900000001  0.23976955000000003  0.5257505099999998  1.0000
  O   O20       1.0  0.43466863999999994  0.26022958  0.025750659999999998  1.0000
  O   O21       1.0  0.06771728  0.3559204699999999  0.35847891  1.0000
  O   O22       1.0  0.5677184  0.14408073  0.8584773399999999  1.0000
  O   O23       1.0  0.93228237  0.64407981  0.64152145  1.0000
  O   O24       1.0  0.4322819900000001  0.8559197699999999  0.14152236999999998  1.0000
  O   O25       1.0  0.0687528  0.026084810000000003  0.31235274999999996  1.0000
  O   O26       1.0  0.5687535899999999  0.47391567  0.81235197  1.0000
  O   O27       1.0  0.93124687  0.9739156000000001  0.6876471999999999  1.0000
  O   O28       1.0  0.43124667999999994  0.52608485  0.18764806999999997  1.0000
  O   O29       1.0  0.9158385100000002  0.7278153  0.30607009  1.0000
  O   O30       1.0  0.41583907  0.7721837199999999  0.8060688299999998  1.0000
  O   O31       1.0  0.08416149  0.2721843  0.69392998  1.0000
  O   O32       1.0  0.5841610000000002  0.22781606000000001  0.19393112  1.0000
  O   O33       1.0  0.8221986099999999  0.5243244699999999  0.44759171999999997  1.0000
  O   O34       1.0  0.32219807999999994  0.9756741699999999  0.9475908899999999  1.0000
  O   O35       1.0  0.17780157  0.4756737  0.55240864  1.0000
  O   O36       1.0  0.6778017399999999  0.02432426  0.05240871999999999  1.0000
  O   O37       1.0  0.74444949  0.8572272499999999  0.45491424  1.0000
  O   O38       1.0  0.24444931  0.6427729  0.95491393  1.0000
  O   O39       1.0  0.25555084  0.14277265  0.54508598  1.0000
  O   O40       1.0  0.75555031  0.35722734  0.0450859  1.0000
  O   O41       1.0  0.75146217  0.22822207  0.3667551  1.0000
  O   O42       1.0  0.2514620399999999  0.27177903  0.8667543399999998  1.0000
  O   O43       1.0  0.24853819999999996  0.7717779600000001  0.6332451499999999  1.0000
  O   O44       1.0  0.7485376699999999  0.72822145  0.13324546  1.0000
  O   O45       1.0  0.57672723  0.74306326  0.30405661999999994  1.0000
  O   O46       1.0  0.07672648  0.75693743  0.8040549199999999  1.0000
  O   O47       1.0  0.42327313999999994  0.2569369699999999  0.69594342  1.0000
  O   O48       1.0  0.92327319  0.24306282  0.19594502  1.0000
