data_image0
_chemical_formula_structural       Al4O6
_chemical_formula_sum              "Al4 O6"
_cell_length_a       5.1795754576469335
_cell_length_b       5.179575362156571
_cell_length_c       5.179575335528058
_cell_angle_alpha    55.31221717432596
_cell_angle_beta     55.312215084218785
_cell_angle_gamma    55.31221414391271

_space_group_name_H-M_alt    "P 1"
_space_group_IT_number       1

loop_
  _space_group_symop_operation_xyz
  'x, y, z'

loop_
  _atom_site_type_symbol
  _atom_site_label
  _atom_site_symmetry_multiplicity
  _atom_site_fract_x
  _atom_site_fract_y
  _atom_site_fract_z
  _atom_site_occupancy
  Al  Al1       1.0  0.00021309999999999998  0.00021308999999999998  0.00021307999999999999  1.0000
  Al  Al2       1.0  0.79578599  0.7957860100000006  0.7957860100000002  1.0000
  Al  Al3       1.0  0.2957859899999999  0.295786  0.2957860100000001  1.0000
  Al  Al4       1.0  0.5002131  0.5002130800000003  0.50021308  1.0000
  O   O1        1.0  0.70411405  0.09188660000000008  0.3980002600000002  1.0000
  O   O2        1.0  0.39800026000000005  0.7041140400000001  0.09188659999999989  1.0000
  O   O3        1.0  0.09188659999999987  0.39800027000000004  0.7041140500000002  1.0000
  O   O4        1.0  0.8980002599999998  0.5918866100000001  0.20411404000000008  1.0000
  O   O5        1.0  0.5918865899999999  0.20411405000000046  0.89800027  1.0000
  O   O6        1.0  0.20411405  0.8980002500000003  0.5918866000000002  1.0000
