data_image0
_chemical_formula_structural       Ba28O70Fe28
_chemical_formula_sum              "Ba28 O70 Fe28"
_cell_length_a       7.072806677658695
_cell_length_b       11.908342416853422
_cell_length_c       23.744601442024052
_cell_angle_alpha    90.00155637415978
_cell_angle_beta     98.96087487596732
_cell_angle_gamma    90.01096299649369

_space_group_name_H-M_alt    "P 1"
_space_group_IT_number       1

loop_
  _space_group_symop_operation_xyz
  'x, y, z'

loop_
  _atom_site_type_symbol
  _atom_site_label
  _atom_site_symmetry_multiplicity
  _atom_site_fract_x
  _atom_site_fract_y
  _atom_site_fract_z
  _atom_site_occupancy
  Ba  Ba1       1.0  0.35142566  0.39077883  0.53574359  1.0000
  Ba  Ba2       1.0  0.64526348  0.8887765499999998  0.96409503  1.0000
  Ba  Ba3       1.0  0.64422212  0.6096204299999999  0.46443468  1.0000
  Ba  Ba4       1.0  0.35376324999999986  0.11058991  0.03562882  1.0000
  Ba  Ba5       1.0  0.75358679  0.38723848999999994  0.67103648  1.0000
  Ba  Ba6       1.0  0.24895717999999997  0.8851869699999999  0.82974533  1.0000
  Ba  Ba7       1.0  0.24843908  0.6149734999999997  0.330308  1.0000
  Ba  Ba8       1.0  0.75073257  0.11484746999999998  0.17031275  1.0000
  Ba  Ba9       1.0  0.1416530000000001  0.3663598299999999  0.8219854600000001  1.0000
  Ba  Ba10      1.0  0.8597751399999999  0.8671293299999999  0.67792476  1.0000
  Ba  Ba11      1.0  0.85987567  0.6329346899999998  0.17870025  1.0000
  Ba  Ba12      1.0  0.13852888  0.13379155  0.32129311  1.0000
  Ba  Ba13      1.0  0.6759259299999999  0.3670332199999999  0.9604404400000001  1.0000
  Ba  Ba14      1.0  0.32276146  0.8671737399999999  0.53942062  1.0000
  Ba  Ba15      1.0  0.32302161  0.6318326999999999  0.03996651  1.0000
  Ba  Ba16      1.0  0.67491944  0.13101828  0.4589725900000001  1.0000
  Ba  Ba17      1.0  0.05378882  0.35171771  0.11344442  1.0000
  Ba  Ba18      1.0  0.9455735299999999  0.85169738  0.38595626000000005  1.0000
  Ba  Ba19      1.0  0.9448850699999998  0.6481204699999997  0.88548687  1.0000
  Ba  Ba20      1.0  0.05554907000000001  0.14738395  0.61396649  1.0000
  Ba  Ba21      1.0  0.5622433299999999  0.3527782099999999  0.25809853  1.0000
  Ba  Ba22      1.0  0.43757411999999996  0.8520418899999999  0.24222545999999998  1.0000
  Ba  Ba23      1.0  0.4375517199999999  0.6470113399999998  0.7421142599999999  1.0000
  Ba  Ba24      1.0  0.56497313  0.1467326399999999  0.7578124200000002  1.0000
  Ba  Ba25      1.0  0.9412580400000001  0.3861405699999999  0.39872070000000004  1.0000
  Ba  Ba26      1.0  0.05807975  0.8853600099999998  0.10187994  1.0000
  Ba  Ba27      1.0  0.05643109  0.6126919699999998  0.60182372  1.0000
  Ba  Ba28      1.0  0.94455399  0.11433647  0.89875245  1.0000
  O   O1        1.0  0.99838945  0.49936080999999977  0.50023993  1.0000
  O   O2        1.0  0.00025623  0.9993579499999997  0.00011642  1.0000
  O   O3        1.0  0.004737890000000007  0.2517594699999999  0.50204755  1.0000
  O   O4        1.0  0.9937776399999998  0.7527653799999998  0.9981628099999998  1.0000
  O   O5        1.0  0.9931606099999999  0.7467429099999998  0.4982829200000001  1.0000
  O   O6        1.0  0.00628686  0.24782082999999996  0.00200771  1.0000
  O   O7        1.0  0.7018044299999999  0.5001398999999997  0.57000868  1.0000
  O   O8        1.0  0.29811748999999993  0.00069145  0.93002042  1.0000
  O   O9        1.0  0.29637348999999996  0.4993769099999998  0.43027858999999996  1.0000
  O   O10       1.0  0.70310221  0.9998374099999997  0.06977767  1.0000
  O   O11       1.0  0.70994911  0.23917259999999999  0.57531662  1.0000
  O   O12       1.0  0.29008135000000007  0.7347683999999998  0.92429722  1.0000
  O   O13       1.0  0.29019303  0.76761842  0.42395493  1.0000
  O   O14       1.0  0.7085998699999998  0.2656634299999999  0.07641902  1.0000
  O   O15       1.0  0.05798646000000004  0.3770394199999999  0.6098847  1.0000
  O   O16       1.0  0.94264041  0.8783547199999999  0.8906765  1.0000
  O   O17       1.0  0.9417602  0.6216526199999999  0.39081401  1.0000
  O   O18       1.0  0.05685833999999999  0.12101742  0.10940147  1.0000
  O   O19       1.0  0.40956579  0.5147165899999999  0.64359964  1.0000
  O   O20       1.0  0.59190204  0.01543415  0.85662179  1.0000
  O   O21       1.0  0.5902484300000002  0.4853638299999999  0.3568692399999999  1.0000
  O   O22       1.0  0.4092212  0.9851900999999998  0.14332585  1.0000
  O   O23       1.0  0.40423268  0.25484178  0.64493091  1.0000
  O   O24       1.0  0.59649461  0.7528821499999999  0.8536724500000002  1.0000
  O   O25       1.0  0.59674889  0.7479952399999996  0.35326165  1.0000
  O   O26       1.0  0.40186437  0.24761896999999988  0.14639485  1.0000
  O   O27       1.0  0.10983579000000002  0.49505975999999974  0.71587036  1.0000
  O   O28       1.0  0.8915727899999999  0.9941487299999996  0.78414997  1.0000
  O   O29       1.0  0.8904579999999999  0.5051935299999999  0.28432633  1.0000
  O   O30       1.0  0.10911276999999998  0.00484409  0.21581164999999997  1.0000
  O   O31       1.0  0.9304155899999998  0.21593492  0.72270156  1.0000
  O   O32       1.0  0.06981038999999997  0.7172843799999997  0.77664818  1.0000
  O   O33       1.0  0.06798302  0.7821098399999997  0.27591251  1.0000
  O   O34       1.0  0.9315978499999998  0.2820125199999999  0.22423216999999998  1.0000
  O   O35       1.0  0.44579742  0.3692846299999999  0.74803653  1.0000
  O   O36       1.0  0.55378315  0.8707725100000001  0.75226608  1.0000
  O   O37       1.0  0.55378356  0.6293665899999998  0.2521707  1.0000
  O   O38       1.0  0.44507562999999994  0.12947561  0.24795549  1.0000
  O   O39       1.0  0.80385511  0.5107061999999999  0.78880799  1.0000
  O   O40       1.0  0.19610469999999997  0.01086023  0.71027847  1.0000
  O   O41       1.0  0.19448767  0.4895561199999998  0.21058314  1.0000
  O   O42       1.0  0.8037663199999997  0.9891674299999995  0.28903819  1.0000
  O   O43       1.0  0.45923590999999997  0.5097309499999999  0.85420974  1.0000
  O   O44       1.0  0.55161004  0.012899889999999999  0.64748834  1.0000
  O   O45       1.0  0.54403191  0.4898525199999999  0.14677826  1.0000
  O   O46       1.0  0.4582785899999999  0.9917214899999997  0.35479373  1.0000
  O   O47       1.0  0.71569038  0.28764208  0.8493407900000001  1.0000
  O   O48       1.0  0.28907806  0.7884624599999998  0.65022193  1.0000
  O   O49       1.0  0.2901210599999999  0.7124422099999999  0.15023653  1.0000
  O   O50       1.0  0.71171502  0.21239706  0.34950036  1.0000
  O   O51       1.0  0.03916186999999999  0.45124444999999985  0.92519505  1.0000
  O   O52       1.0  0.9599972399999999  0.9498877399999998  0.57406046  1.0000
  O   O53       1.0  0.9596247499999999  0.5508603799999999  0.07456984  1.0000
  O   O54       1.0  0.03624832000000002  0.0512198  0.42519323  1.0000
  O   O55       1.0  0.31641424  0.25823758  0.9251814200000001  1.0000
  O   O56       1.0  0.6860876599999999  0.7554243899999997  0.57354386  1.0000
  O   O57       1.0  0.68700705  0.7450644199999997  0.07335587  1.0000
  O   O58       1.0  0.30955105999999993  0.2447895499999999  0.42610708  1.0000
  O   O59       1.0  0.35441026  0.4017256499999999  0.0353957  1.0000
  O   O60       1.0  0.6484361799999999  0.8956636099999998  0.4644855700000001  1.0000
  O   O61       1.0  0.6475806499999999  0.6048689199999998  0.96448136  1.0000
  O   O62       1.0  0.35580305  0.10176116  0.53554351  1.0000
  O   O63       1.0  0.24903895  0.3553761599999999  0.32241831  1.0000
  O   O64       1.0  0.7507438499999999  0.8550512599999999  0.17731818  1.0000
  O   O65       1.0  0.7518863199999999  0.6449141199999999  0.67750205  1.0000
  O   O66       1.0  0.24928165  0.14381722  0.82211348  1.0000
  O   O67       1.0  0.64924408  0.36717606999999997  0.4643105300000001  1.0000
  O   O68       1.0  0.3489863699999999  0.8689456299999999  0.03557052  1.0000
  O   O69       1.0  0.34785174999999996  0.6310669699999997  0.53579083  1.0000
  O   O70       1.0  0.65155934  0.13052336  0.96460141  1.0000
  Fe  Fe1       1.0  0.85558729  0.3710329799999999  0.5351965800000001  1.0000
  Fe  Fe2       1.0  0.13902062000000004  0.8739451599999999  0.96580636  1.0000
  Fe  Fe3       1.0  0.13470566  0.6227323999999999  0.4664397900000001  1.0000
  Fe  Fe4       1.0  0.8605525799999999  0.12139676999999999  0.03455283  1.0000
  Fe  Fe5       1.0  0.27707706  0.39474878999999996  0.67427664  1.0000
  Fe  Fe6       1.0  0.72563468  0.8960649399999997  0.8255102700000001  1.0000
  Fe  Fe7       1.0  0.72433245  0.6038333299999997  0.32563488  1.0000
  Fe  Fe8       1.0  0.27478237  0.10352134  0.17461206  1.0000
  Fe  Fe9       1.0  0.6151641  0.4166082099999998  0.8134969500000001  1.0000
  Fe  Fe10      1.0  0.38672823  0.9174591499999998  0.68651841  1.0000
  Fe  Fe11      1.0  0.38575656999999997  0.5827251399999999  0.18662313999999997  1.0000
  Fe  Fe12      1.0  0.6139771999999999  0.08298888  0.31336297  1.0000
  Fe  Fe13      1.0  0.1757845300000001  0.34773363999999995  0.9712497200000001  1.0000
  Fe  Fe14      1.0  0.8235601700000001  0.8462567699999999  0.52836229  1.0000
  Fe  Fe15      1.0  0.8236623199999998  0.6534179999999999  0.02833725  1.0000
  Fe  Fe16      1.0  0.17446021999999997  0.15336135  0.47140703  1.0000
  Fe  Fe17      1.0  0.52092643  0.3544825399999999  0.10276248  1.0000
  Fe  Fe18      1.0  0.47950227  0.8547588699999997  0.39764928  1.0000
  Fe  Fe19      1.0  0.47868143  0.6456117999999997  0.89773531  1.0000
  Fe  Fe20      1.0  0.52413334  0.14846168  0.6022920000000002  1.0000
  Fe  Fe21      1.0  0.06439197000000002  0.4013552299999999  0.25962329  1.0000
  Fe  Fe22      1.0  0.93487195  0.9009926699999998  0.24030989999999997  1.0000
  Fe  Fe23      1.0  0.9364853100000001  0.5990727499999999  0.7404589400000001  1.0000
  Fe  Fe24      1.0  0.06468591000000001  0.09842808  0.75930401  1.0000
  Fe  Fe25      1.0  0.4310049599999998  0.37882576  0.39992892  1.0000
  Fe  Fe26      1.0  0.5673964899999999  0.8787706899999997  0.10019432999999998  1.0000
  Fe  Fe27      1.0  0.5669178299999998  0.6208201999999999  0.60019007  1.0000
  Fe  Fe28      1.0  0.4344347599999999  0.11956775  0.8993935199999998  1.0000
