data_image0
_chemical_formula_structural       Al12Ca10O28
_chemical_formula_sum              "Al12 Ca10 O28"
_cell_length_a       7.943401873152278
_cell_length_b       7.943402090661252
_cell_length_c       10.382010994000009
_cell_angle_alpha    90.00000383174587
_cell_angle_beta     90.00000024032987
_cell_angle_gamma    91.50691415376124

_space_group_name_H-M_alt    "P 1"
_space_group_IT_number       1

loop_
  _space_group_symop_operation_xyz
  'x, y, z'

loop_
  _atom_site_type_symbol
  _atom_site_label
  _atom_site_symmetry_multiplicity
  _atom_site_fract_x
  _atom_site_fract_y
  _atom_site_fract_z
  _atom_site_occupancy
  Al  Al1       1.0  0.2109776400000001  0.49799896000000016  0.00885374  1.0000
  Al  Al2       1.0  0.49799897  0.21097762000000012  0.00885373  1.0000
  Al  Al3       1.0  0.7890227700000002  0.5020006400000003  0.50885101  1.0000
  Al  Al4       1.0  0.5020006400000002  0.7890227700000002  0.50885101  1.0000
  Al  Al5       1.0  0.7010191500000003  0.7010191300000004  0.9405334899999999  1.0000
  Al  Al6       1.0  0.2989812200000001  0.29898123000000015  0.44053075  1.0000
  Al  Al7       1.0  0.00074123  0.0007412300000000001  0.9621154899999999  1.0000
  Al  Al8       1.0  0.9992588900000005  0.9992589100000003  0.46211231  1.0000
  Al  Al9       1.0  0.8432864600000001  0.35338582000000024  0.9759247399999998  1.0000
  Al  Al10      1.0  0.35338583000000023  0.8432864500000004  0.9759247400000001  1.0000
  Al  Al11      1.0  0.1567139300000002  0.6466129600000001  0.47592228999999997  1.0000
  Al  Al12      1.0  0.64661294  0.15671394000000002  0.47592228999999997  1.0000
  Ca  Ca1       1.0  0.0534272100000002  0.7364253900000002  0.7492020299999999  1.0000
  Ca  Ca2       1.0  0.7364254  0.0534271900000001  0.74920202  1.0000
  Ca  Ca3       1.0  0.9465720500000001  0.26357489000000023  0.24920252  1.0000
  Ca  Ca4       1.0  0.2635749000000003  0.9465720600000004  0.24920252  1.0000
  Ca  Ca5       1.0  0.040963220000000106  0.3250258700000001  0.69924093  1.0000
  Ca  Ca6       1.0  0.32502583  0.04096324  0.6992409199999999  1.0000
  Ca  Ca7       1.0  0.9590363500000001  0.6749741600000004  0.19924012999999996  1.0000
  Ca  Ca8       1.0  0.6749741700000003  0.9590363400000004  0.19924012999999996  1.0000
  Ca  Ca9       1.0  0.47441320000000015  0.47441320000000015  0.7424693  1.0000
  Ca  Ca10      1.0  0.5255869600000002  0.5255869700000001  0.24246947  1.0000
  O   O1        1.0  0.009092770000000102  0.4371237900000002  0.07647036  1.0000
  O   O2        1.0  0.4371238  0.009092760000000002  0.07647035  1.0000
  O   O3        1.0  0.9909064000000001  0.5628759400000003  0.57647082  1.0000
  O   O4        1.0  0.5628759300000002  0.9909064100000003  0.57647082  1.0000
  O   O5        1.0  0.3754631800000001  0.3754631700000002  0.06663693  1.0000
  O   O6        1.0  0.6245363100000002  0.6245363100000003  0.56663733  1.0000
  O   O7        1.0  0.24699691000000032  0.7019954300000003  0.08478330999999999  1.0000
  O   O8        1.0  0.70199544  0.24699689000000014  0.0847833  1.0000
  O   O9        1.0  0.75300426  0.29800491000000007  0.58478403  1.0000
  O   O10       1.0  0.2980049000000003  0.7530042700000001  0.5847840399999998  1.0000
  O   O11       1.0  0.93730134  0.19130191000000013  0.8841135099999999  1.0000
  O   O12       1.0  0.1913019200000003  0.9373013100000003  0.88411352  1.0000
  O   O13       1.0  0.06269939000000022  0.8086982400000003  0.3841138599999999  1.0000
  O   O14       1.0  0.80869823  0.06269939000000012  0.3841138499999999  1.0000
  O   O15       1.0  0.8539745100000004  0.8539745100000004  0.88710015  1.0000
  O   O16       1.0  0.14602529  0.1460253  0.38710023  1.0000
  O   O17       1.0  0.1908762200000002  0.5109688300000003  0.8396368699999999  1.0000
  O   O18       1.0  0.51096883  0.1908762100000001  0.8396368599999999  1.0000
  O   O19       1.0  0.8091232300000001  0.48903174000000027  0.33963801  1.0000
  O   O20       1.0  0.4890317400000003  0.8091232200000001  0.33963801  1.0000
  O   O21       1.0  0.9929913500000003  0.9929913500000004  0.13126814  1.0000
  O   O22       1.0  0.00700832  0.007008330000000001  0.63126931  1.0000
  O   O23       1.0  0.7561661900000001  0.5046905300000002  0.8731652999999999  1.0000
  O   O24       1.0  0.5046905400000002  0.7561661500000003  0.8731652999999999  1.0000
  O   O25       1.0  0.2438334700000001  0.4953106700000002  0.37316636  1.0000
  O   O26       1.0  0.49531066  0.24383348000000013  0.37316635  1.0000
  O   O27       1.0  0.7001533800000003  0.7001533600000001  0.10999797  1.0000
  O   O28       1.0  0.29984656000000004  0.29984657000000003  0.6099995299999998  1.0000
