data_image0
_chemical_formula_structural       CeO2
_chemical_formula_sum              "Ce1 O2"
_cell_length_a       3.885762662874505
_cell_length_b       3.885762669945573
_cell_length_c       3.8857626784308534
_cell_angle_alpha    59.999980472277684
_cell_angle_beta     59.99998074918121
_cell_angle_gamma    59.999980773259765

_space_group_name_H-M_alt    "P 1"
_space_group_IT_number       1

loop_
  _space_group_symop_operation_xyz
  'x, y, z'

loop_
  _atom_site_type_symbol
  _atom_site_label
  _atom_site_symmetry_multiplicity
  _atom_site_fract_x
  _atom_site_fract_y
  _atom_site_fract_z
  _atom_site_occupancy
  Ce  Ce1       1.0  0.4999999999999997  0.49999999999999983  0.5000000000000002  1.0000
  O   O1        1.0  0.24999999999999992  0.24999999999999992  0.2500000000000001  1.0000
  O   O2        1.0  0.7499999999999997  0.7499999999999999  0.7500000000000002  1.0000
