data_image0
_chemical_formula_structural       O14Ce4La4
_chemical_formula_sum              "O14 Ce4 La4"
_cell_length_a       8.000657168082911
_cell_length_b       8.000657252228605
_cell_length_c       8.00065740991339
_cell_angle_alpha    59.999977286373955
_cell_angle_beta     59.99997689753199
_cell_angle_gamma    59.99997636250873

_space_group_name_H-M_alt    "P 1"
_space_group_IT_number       1

loop_
  _space_group_symop_operation_xyz
  'x, y, z'

loop_
  _atom_site_type_symbol
  _atom_site_label
  _atom_site_symmetry_multiplicity
  _atom_site_fract_x
  _atom_site_fract_y
  _atom_site_fract_z
  _atom_site_occupancy
  O   O1        1.0  0.7190550299999999  0.2809450100000001  0.28094497  1.0000
  O   O2        1.0  0.9690645999999999  0.53093538  0.5309353900000001  1.0000
  O   O3        1.0  0.5309353699999996  0.53093538  0.9690646300000002  1.0000
  O   O4        1.0  0.9690646099999998  0.5309353499999998  0.96906466  1.0000
  O   O5        1.0  0.280945  0.28094498  0.7190550299999999  1.0000
  O   O6        1.0  0.53093536  0.9690645999999999  0.9690646500000001  1.0000
  O   O7        1.0  0.9690646299999999  0.96906463  0.5309353600000001  1.0000
  O   O8        1.0  0.7190549999999999  0.28094501000000005  0.71905499  1.0000
  O   O9        1.0  0.7190550099999998  0.7190550199999999  0.2809449700000003  1.0000
  O   O10       1.0  0.2809450300000001  0.7190550199999999  0.28094499  1.0000
  O   O11       1.0  0.2809449999999997  0.7190550299999998  0.7190550200000002  1.0000
  O   O12       1.0  0.5309353699999999  0.9690646199999999  0.5309353600000003  1.0000
  O   O13       1.0  0.9999999999999998  9.999999999999999e-09  1.0000000000000002e-08  1.0000
  O   O14       1.0  0.24999999999999983  0.24999999  0.24999999999999992  1.0000
  Ce  Ce1       1.0  0.6250000699999999  0.6249999199999999  0.6250000100000002  1.0000
  Ce  Ce2       1.0  0.62499994  0.625  0.12500001  1.0000
  Ce  Ce3       1.0  0.6249999899999998  0.12500002999999987  0.6250000200000001  1.0000
  Ce  Ce4       1.0  0.12500001999999996  0.6249999799999999  0.6249999400000001  1.0000
  La  La1       1.0  0.12500096000000002  0.12500093999999998  0.12500096  1.0000
  La  La2       1.0  0.12500092  0.12500098999999998  0.62499715  1.0000
  La  La3       1.0  0.12500098  0.6249971399999997  0.12500096  1.0000
  La  La4       1.0  0.6249971299999999  0.12500096  0.12500093  1.0000
