data_image0
_chemical_formula_structural       Ba4In4O10
_chemical_formula_sum              "Ba4 In4 O10"
_cell_length_a       6.061813263196642
_cell_length_b       6.240192737073449
_cell_length_c       9.496135762491193
_cell_angle_alpha    109.18398365850318
_cell_angle_beta     108.61496234762362
_cell_angle_gamma    89.99942517766577

_space_group_name_H-M_alt    "P 1"
_space_group_IT_number       1

loop_
  _space_group_symop_operation_xyz
  'x, y, z'

loop_
  _atom_site_type_symbol
  _atom_site_label
  _atom_site_symmetry_multiplicity
  _atom_site_fract_x
  _atom_site_fract_y
  _atom_site_fract_z
  _atom_site_occupancy
  Ba  Ba1       1.0  0.09531440999999999  0.62653121  0.2182005  1.0000
  Ba  Ba2       1.0  0.8770777  0.3734638399999999  0.7818027199999998  1.0000
  Ba  Ba3       1.0  0.3770957899999998  0.90833831  0.78180279  1.0000
  Ba  Ba4       1.0  0.59530034  0.09166876  0.21820014  1.0000
  In  In1       1.0  0.49164646000000006  0.5000342  1.43e-06  1.0000
  In  In2       1.0  0.9916464299999997  3.001e-05  7e-07  1.0000
  In  In3       1.0  0.7104549499999999  0.6845692299999999  0.50000134  1.0000
  In  In4       1.0  0.21044531  0.31540167  0.5000012599999999  1.0000
  O   O1        1.0  0.22889807999999986  0.73665736  0.9828589999999999  1.0000
  O   O2        1.0  0.24604868999999996  0.2633701  0.01714243  1.0000
  O   O3        1.0  0.7460173700000001  0.25378168  0.01713017  1.0000
  O   O4        1.0  0.72891055  0.74622501  0.9828670299999999  1.0000
  O   O5        1.0  0.65466725  0.6945301799999999  0.27561743  1.0000
  O   O6        1.0  0.37918676  0.3054450599999998  0.7243727899999999  1.0000
  O   O7        1.0  0.8791881200000001  0.9189536999999999  0.7243720100000001  1.0000
  O   O8        1.0  0.15468364999999998  0.08103108  0.275616  1.0000
  O   O9        1.0  0.8669098099999999  0.38131126  0.50001688  1.0000
  O   O10       1.0  0.36690832  0.61865735  0.4999953699999999  1.0000
