data_image0
_chemical_formula_structural       Nb2Fe2O8
_chemical_formula_sum              "Nb2 Fe2 O8"
_cell_length_a       3.922056313272371
_cell_length_b       6.662954524348629
_cell_length_c       6.743371261778383
_cell_angle_alpha    106.51787059131667
_cell_angle_beta     89.99972087397737
_cell_angle_gamma    107.11544777443258

_space_group_name_H-M_alt    "P 1"
_space_group_IT_number       1

loop_
  _space_group_symop_operation_xyz
  'x, y, z'

loop_
  _atom_site_type_symbol
  _atom_site_label
  _atom_site_symmetry_multiplicity
  _atom_site_fract_x
  _atom_site_fract_y
  _atom_site_fract_z
  _atom_site_occupancy
  Nb  Nb1       1.0  0.8950956400000001  0.7901974500000001  0.7747896600000003  1.0000
  Nb  Nb2       1.0  0.10490432999999999  0.20980252999999996  0.22521033000000001  1.0000
  Fe  Fe1       1.0  0.80326712  0.6065527  0.19153878000000002  1.0000
  Fe  Fe2       1.0  0.19673289  0.3934472800000001  0.8084612200000002  1.0000
  O   O1        1.0  0.7437063400000001  0.48739188  0.8559521400000001  1.0000
  O   O2        1.0  0.25629366  0.51260811  0.14404786  1.0000
  O   O3        1.0  0.63613527  0.27226711  0.20401223000000002  1.0000
  O   O4        1.0  0.36386472000000003  0.72773287  0.7959877500000002  1.0000
  O   O5        1.0  0.94485647  0.8897349099999999  0.13222254  1.0000
  O   O6        1.0  0.055143520000000015  0.11026508000000002  0.86777746  1.0000
  O   O7        1.0  0.8628407300000002  0.7256718599999998  0.48741470000000003  1.0000
  O   O8        1.0  0.13715931999999997  0.27432820999999996  0.5125853  1.0000
