data_image0
_chemical_formula_structural       Ba4O16Y8
_chemical_formula_sum              "Ba4 O16 Y8"
_cell_length_a       10.593756730000003
_cell_length_b       12.388632495000001
_cell_length_c       3.521946098000001
_cell_angle_alpha    89.99999965289385
_cell_angle_beta     89.9999999433003
_cell_angle_gamma    89.99999970737271

_space_group_name_H-M_alt    "P 1"
_space_group_IT_number       1

loop_
  _space_group_symop_operation_xyz
  'x, y, z'

loop_
  _atom_site_type_symbol
  _atom_site_label
  _atom_site_symmetry_multiplicity
  _atom_site_fract_x
  _atom_site_fract_y
  _atom_site_fract_z
  _atom_site_occupancy
  Ba  Ba1       1.0  0.25366563  0.8515759300000002  0.25  1.0000
  Ba  Ba2       1.0  0.75366562  0.6484240699999999  0.2500000099999999  1.0000
  Ba  Ba3       1.0  0.74633437  0.14842407  0.7499999999999999  1.0000
  Ba  Ba4       1.0  0.24633437999999996  0.35157593  0.7499999999999999  1.0000
  O   O1        1.0  0.7091669100000001  0.33849422000000007  0.25  1.0000
  O   O2        1.0  0.20916689999999996  0.16150578  0.25  1.0000
  O   O3        1.0  0.2908330900000001  0.6615057800000005  0.7500000099999999  1.0000
  O   O4        1.0  0.7908331  0.83849422  0.7499999899999998  1.0000
  O   O5        1.0  0.61713026  0.01829827  0.25  1.0000
  O   O6        1.0  0.11713025  0.48170173  0.25  1.0000
  O   O7        1.0  0.38286974000000007  0.9817017300000003  0.75  1.0000
  O   O8        1.0  0.8828697499999999  0.5182982700000001  0.7499999999999999  1.0000
  O   O9        1.0  0.01817368  0.71672309  0.25  1.0000
  O   O10       1.0  0.5181736800000001  0.78327691  0.25  1.0000
  O   O11       1.0  0.9818263200000001  0.28327691  0.75  1.0000
  O   O12       1.0  0.48182632  0.21672309  0.75  1.0000
  O   O13       1.0  0.92764784  0.07464034  0.25  1.0000
  O   O14       1.0  0.42764783000000006  0.42535966000000003  0.25  1.0000
  O   O15       1.0  0.07235216  0.9253596600000003  0.7499999999999999  1.0000
  O   O16       1.0  0.57235217  0.57464034  0.7500000099999999  1.0000
  Y   Y1        1.0  0.92731718  0.8879117400000001  0.24999998999999998  1.0000
  Y   Y2        1.0  0.4273172  0.6120882500000002  0.25000001  1.0000
  Y   Y3        1.0  0.07268281  0.11208826  0.7500000099999999  1.0000
  Y   Y4        1.0  0.57268281  0.38791176000000027  0.7499999999999999  1.0000
  Y   Y5        1.0  0.92142062  0.3910311300000001  0.25  1.0000
  Y   Y6        1.0  0.4214206300000001  0.10896887  0.25  1.0000
  Y   Y7        1.0  0.07857936999999998  0.60896887  0.7499999999999999  1.0000
  Y   Y8        1.0  0.5785793700000001  0.89103113  0.75  1.0000
