data_image0
_chemical_formula_structural       Al4O6
_chemical_formula_sum              "Al4 O6"
_cell_length_a       5.179592213840605
_cell_length_b       5.179592174323696
_cell_length_c       5.179592248753614
_cell_angle_alpha    55.311880258891385
_cell_angle_beta     55.3118804713624
_cell_angle_gamma    55.31188069087422

_space_group_name_H-M_alt    "P 1"
_space_group_IT_number       1

loop_
  _space_group_symop_operation_xyz
  'x, y, z'

loop_
  _atom_site_type_symbol
  _atom_site_label
  _atom_site_symmetry_multiplicity
  _atom_site_fract_x
  _atom_site_fract_y
  _atom_site_fract_z
  _atom_site_occupancy
  Al  Al1       1.0  0.00021321000000000003  0.00021320999999999997  0.0002132  1.0000
  Al  Al2       1.0  0.7957859199999997  0.7957858899999999  0.7957859  1.0000
  Al  Al3       1.0  0.29578592  0.2957858899999999  0.29578589  1.0000
  Al  Al4       1.0  0.5002131899999996  0.5002131999999999  0.5002132200000001  1.0000
  O   O1        1.0  0.70411199  0.09188857999999998  0.39800034  1.0000
  O   O2        1.0  0.3980003399999997  0.7041119899999999  0.09188855  1.0000
  O   O3        1.0  0.09188855999999987  0.39800031999999996  0.70411201  1.0000
  O   O4        1.0  0.8980003299999999  0.5918885699999998  0.20411199  1.0000
  O   O5        1.0  0.5918885599999996  0.204112  0.8980003200000001  1.0000
  O   O6        1.0  0.20411198999999974  0.8980003399999998  0.5918885800000003  1.0000
