data_image0
_chemical_formula_structural       Al4Ni2O8
_chemical_formula_sum              "Al4 Ni2 O8"
_cell_length_a       5.7366901254216
_cell_length_b       5.736694847068916
_cell_length_c       5.784749407775806
_cell_angle_alpha    59.72275833388111
_cell_angle_beta     59.722837715975466
_cell_angle_gamma    59.197653334913184

_space_group_name_H-M_alt    "P 1"
_space_group_IT_number       1

loop_
  _space_group_symop_operation_xyz
  'x, y, z'

loop_
  _atom_site_type_symbol
  _atom_site_label
  _atom_site_symmetry_multiplicity
  _atom_site_fract_x
  _atom_site_fract_y
  _atom_site_fract_z
  _atom_site_occupancy
  Al  Al1       1.0  0.9922605300000007  0.99226053  0.007746449999999699  1.0000
  Al  Al2       1.0  0.2577395100000001  0.25773950999999995  0.2422536  1.0000
  Al  Al3       1.0  0.6250000200000002  0.62500002  0.6250000199999998  1.0000
  Al  Al4       1.0  0.62500002  0.62500002  0.12500002  1.0000
  Ni  Ni1       1.0  0.6250000200000002  0.12500001999999993  0.62500002  1.0000
  Ni  Ni2       1.0  0.12500002000000018  0.62500002  0.62500002  1.0000
  O   O1        1.0  0.8560123500000005  0.3865142399999999  0.8787407899999998  1.0000
  O   O2        1.0  0.38651426000000033  0.8560123399999999  0.8787409199999998  1.0000
  O   O3        1.0  0.8634857900000003  0.3939877099999998  0.3712591299999999  1.0000
  O   O4        1.0  0.3939877000000003  0.8634858  0.37125926  1.0000
  O   O5        1.0  0.8589487500000006  0.8589553499999997  0.8933604699999999  1.0000
  O   O6        1.0  0.8589514600000004  0.8589449399999999  0.38874439999999993  1.0000
  O   O7        1.0  0.3910485900000004  0.3910550999999998  0.8612556399999999  1.0000
  O   O8        1.0  0.39105129000000033  0.39104469  0.35663957  1.0000
