data_image0
_chemical_formula_structural       O24Mn6Ba8Nb2
_chemical_formula_sum              "O24 Mn6 Ba8 Nb2"
_cell_length_a       10.152249602256262
_cell_length_b       5.77271007148826
_cell_length_c       10.062607692088779
_cell_angle_alpha    89.9999639971631
_cell_angle_beta     108.46749384748635
_cell_angle_gamma    90.00001423211538

_space_group_name_H-M_alt    "P 1"
_space_group_IT_number       1

loop_
  _space_group_symop_operation_xyz
  'x, y, z'

loop_
  _atom_site_type_symbol
  _atom_site_label
  _atom_site_symmetry_multiplicity
  _atom_site_fract_x
  _atom_site_fract_y
  _atom_site_fract_z
  _atom_site_occupancy
  O   O1        1.0  0.87168507  0.49999997999999984  0.6122718800000001  1.0000
  O   O2        1.0  0.37167381000000005  1.0999999999999998e-07  0.6122767400000001  1.0000
  O   O3        1.0  0.60586268  0.77751873  0.62787111  1.0000
  O   O4        1.0  0.10588001000000002  0.72247994  0.62786552  1.0000
  O   O5        1.0  0.10588001000000002  0.27752006  0.62786559  1.0000
  O   O6        1.0  0.6058627  0.22248135  0.62787098  1.0000
  O   O7        1.0  0.09895636000000001  0.4999999299999999  0.3687030000000001  1.0000
  O   O8        1.0  0.59894521  0.9999999099999999  0.3687012700000001  1.0000
  O   O9        1.0  0.38107322  0.7784244299999997  0.36593092  1.0000
  O   O10       1.0  0.8810883600000001  0.7215790900000001  0.3659279  1.0000
  O   O11       1.0  0.8810883199999999  0.2784208400000001  0.36592794  1.0000
  O   O12       1.0  0.38107322  0.22157542  0.36593083000000004  1.0000
  O   O13       1.0  0.05551546000000016  0.74727509  0.8869814800000001  1.0000
  O   O14       1.0  0.05551549  0.2527255  0.8869817300000001  1.0000
  O   O15       1.0  0.5554962  0.7527324099999999  0.8869881400000001  1.0000
  O   O16       1.0  0.5554960100000002  0.2472680699999999  0.8869878400000001  1.0000
  O   O17       1.0  0.81334257  1.0000000000000004e-07  0.87594346  1.0000
  O   O18       1.0  0.3133366400000001  0.50000023  0.8759441500000001  1.0000
  O   O19       1.0  0.9600430400000003  0.74787094  0.12432245000000001  1.0000
  O   O20       1.0  0.9600430700000001  0.2521286599999998  0.12432268000000002  1.0000
  O   O21       1.0  0.46002801000000004  0.75211885  0.12432781  1.0000
  O   O22       1.0  0.4600279400000001  0.2478807899999999  0.12432763  1.0000
  O   O23       1.0  0.21510664  0.9999999000000002  0.12559725000000002  1.0000
  O   O24       1.0  0.71510624  0.49999984999999986  0.12559668000000002  1.0000
  Mn  Mn1       1.0  0.99056873  0.49999997999999984  0.5019467500000001  1.0000
  Mn  Mn2       1.0  0.49055551  0.9999999900000001  0.50194244  1.0000
  Mn  Mn3       1.0  0.09106529000000003  0.5000000699999999  0.7702790500000002  1.0000
  Mn  Mn4       1.0  0.5910449  1.0999999999999998e-07  0.7702826600000001  1.0000
  Mn  Mn5       1.0  0.9127672000000001  0.4999999000000001  0.23485456  1.0000
  Mn  Mn6       1.0  0.41275818000000003  0.99999989  0.23486073000000002  1.0000
  Ba  Ba1       1.0  0.86394724  9.999999899999992e-09  0.6089853700000001  1.0000
  Ba  Ba2       1.0  0.3639421400000001  0.49999993999999987  0.60898906  1.0000
  Ba  Ba3       1.0  0.6278177000000001  0.4999999300000001  0.3909206200000001  1.0000
  Ba  Ba4       1.0  0.12781705000000002  0.9999999199999999  0.39091836000000013  1.0000
  Ba  Ba5       1.0  0.7866354600000002  0.5000000899999999  0.8514726600000002  1.0000
  Ba  Ba6       1.0  0.28663943  7.000000000000006e-08  0.85147382  1.0000
  Ba  Ba7       1.0  0.21736937999999997  0.49999993999999987  0.14667356  1.0000
  Ba  Ba8       1.0  0.7173728700000002  0.9999999699999998  0.14667126  1.0000
  Nb  Nb1       1.0  0.00579038  1.0  0.00212669  1.0000
  Nb  Nb2       1.0  0.50578226  0.4999999899999999  0.0021374300000000005  1.0000
