data_image0
_chemical_formula_structural       Ba2O18Ti8
_chemical_formula_sum              "Ba2 O18 Ti8"
_cell_length_a       14.80525624900014
_cell_length_b       3.844070372000083
_cell_length_c       6.395060787000159
_cell_angle_alpha    89.99999535189703
_cell_angle_beta     89.99998968051425
_cell_angle_gamma    90.00000004221201

_space_group_name_H-M_alt    "P 1"
_space_group_IT_number       1

loop_
  _space_group_symop_operation_xyz
  'x, y, z'

loop_
  _atom_site_type_symbol
  _atom_site_label
  _atom_site_symmetry_multiplicity
  _atom_site_fract_x
  _atom_site_fract_y
  _atom_site_fract_z
  _atom_site_occupancy
  Ba  Ba1       1.0  0.74999996  0.24999994999999997  0.27403801000000005  1.0000
  Ba  Ba2       1.0  0.2500000299999999  0.7500000499999997  0.7259620100000002  1.0000
  O   O1        1.0  0.009881669999999999  0.7500000399999999  0.84969679  1.0000
  O   O2        1.0  0.49011838  0.7500000299999997  0.8496966400000001  1.0000
  O   O3        1.0  0.9901183999999998  0.24999997  0.15030334000000004  1.0000
  O   O4        1.0  0.50988158  0.24999995999999997  0.15030314  1.0000
  O   O5        1.0  0.09882476999999999  0.7499999899999998  0.25924082  1.0000
  O   O6        1.0  0.40117519999999995  0.7499999899999998  0.25924066  1.0000
  O   O7        1.0  0.9011753099999998  0.25000002  0.7407594000000001  1.0000
  O   O8        1.0  0.59882474  0.2500000099999999  0.74075913  1.0000
  O   O9        1.0  0.65082589  0.7499999499999997  0.0418412  1.0000
  O   O10       1.0  0.84917412  0.74999996  0.04184137  1.0000
  O   O11       1.0  0.34917408999999994  0.2500000399999999  0.9581586900000002  1.0000
  O   O12       1.0  0.15082586999999997  0.2500000499999999  0.95815883  1.0000
  O   O13       1.0  0.5956695099999999  0.74999999  0.43708284000000003  1.0000
  O   O14       1.0  0.9043305799999999  0.7499999899999998  0.43708273  1.0000
  O   O15       1.0  0.40433047999999994  0.2500000099999999  0.56291694  1.0000
  O   O16       1.0  0.09566948999999998  0.2500000199999999  0.56291735  1.0000
  O   O17       1.0  0.7499999099999999  0.7500000499999998  0.65992191  1.0000
  O   O18       1.0  0.25000007  0.2499999499999999  0.34007805  1.0000
  Ti  Ti1       1.0  0.53775743  0.7499998999999998  0.19123515000000002  1.0000
  Ti  Ti2       1.0  0.9622425899999999  0.7499999099999998  0.19123506  1.0000
  Ti  Ti3       1.0  0.46224261999999994  0.25000009  0.8087648100000001  1.0000
  Ti  Ti4       1.0  0.0377573  0.2500000999999999  0.8087653000000001  1.0000
  Ti  Ti5       1.0  0.6279655999999999  0.7500000299999998  0.74188796  1.0000
  Ti  Ti6       1.0  0.8720344200000001  0.7500000099999999  0.74188823  1.0000
  Ti  Ti7       1.0  0.37203443  0.24999997  0.25811184  1.0000
  Ti  Ti8       1.0  0.12796555  0.24999999999999986  0.25811182  1.0000
