data_image0
_chemical_formula_structural       Sr4O8Ce2
_chemical_formula_sum              "Sr4 O8 Ce2"
_cell_length_a       6.161078034000001
_cell_length_b       10.513866245000003
_cell_length_c       3.641206162
_cell_angle_alpha    89.99999966826074
_cell_angle_beta     89.99999979399206
_cell_angle_gamma    90.00000118532691

_space_group_name_H-M_alt    "P 1"
_space_group_IT_number       1

loop_
  _space_group_symop_operation_xyz
  'x, y, z'

loop_
  _atom_site_type_symbol
  _atom_site_label
  _atom_site_symmetry_multiplicity
  _atom_site_fract_x
  _atom_site_fract_y
  _atom_site_fract_z
  _atom_site_occupancy
  Sr  Sr1       1.0  0.06183012999999999  0.67860601  0.50000001  1.0000
  Sr  Sr2       1.0  0.5618301199999998  0.8213939900000002  0.5  1.0000
  Sr  Sr3       1.0  0.9381698799999999  0.3213939800000001  0.49999999000000006  1.0000
  Sr  Sr4       1.0  0.43816986999999996  0.17860601  0.5  1.0000
  O   O1        1.0  0.8559214399999998  0.80578397  0.0  1.0000
  O   O2        1.0  0.3559214499999999  0.6942160200000002  0.0  1.0000
  O   O3        1.0  0.14407854999999997  0.19421603  1.0  1.0000
  O   O4        1.0  0.6440785499999998  0.3057839800000001  1.0  1.0000
  O   O5        1.0  0.22819795999999998  0.9583122  0.5  1.0000
  O   O6        1.0  0.7281979499999996  0.5416878  0.5  1.0000
  O   O7        1.0  0.7718020499999997  0.0416878  0.5  1.0000
  O   O8        1.0  0.27180205  0.4583122  0.5  1.0000
  Ce  Ce1       1.0  3.4095043013251613e-26  9.999999999999999e-09  1.0  1.0000
  Ce  Ce2       1.0  0.49999998999999984  0.5000000000000001  0.0  1.0000
