data_image0
_chemical_formula_structural       SrO
_chemical_formula_sum              "Sr1 O1"
_cell_length_a       3.6809428649975486
_cell_length_b       3.6809428706544027
_cell_length_c       3.6809428494412
_cell_angle_alpha    59.999994268154545
_cell_angle_beta     59.99999406480749
_cell_angle_gamma    59.999994611302725

_space_group_name_H-M_alt    "P 1"
_space_group_IT_number       1

loop_
  _space_group_symop_operation_xyz
  'x, y, z'

loop_
  _atom_site_type_symbol
  _atom_site_label
  _atom_site_symmetry_multiplicity
  _atom_site_fract_x
  _atom_site_fract_y
  _atom_site_fract_z
  _atom_site_occupancy
  Sr  Sr1       1.0  0.0  0.0  0.0  1.0000
  O   O1        1.0  0.5  0.49999999999999994  0.49999999999999994  1.0000
