data_image0
_chemical_formula_structural       Y4Co4O12
_chemical_formula_sum              "Y4 Co4 O12"
_cell_length_a       5.348895005392118
_cell_length_b       5.747057073000294
_cell_length_c       7.472424987463789
_cell_angle_alpha    90.00000527316645
_cell_angle_beta     90.00345808708823
_cell_angle_gamma    90.00001213387239

_space_group_name_H-M_alt    "P 1"
_space_group_IT_number       1

loop_
  _space_group_symop_operation_xyz
  'x, y, z'

loop_
  _atom_site_type_symbol
  _atom_site_label
  _atom_site_symmetry_multiplicity
  _atom_site_fract_x
  _atom_site_fract_y
  _atom_site_fract_z
  _atom_site_occupancy
  Y   Y1        1.0  0.5208346300000001  0.4224390900000001  0.24999192  1.0000
  Y   Y2        1.0  0.97916536  0.9224392500000004  0.2500085  1.0000
  Y   Y3        1.0  0.4791655799999999  0.5775607600000001  0.75000859  1.0000
  Y   Y4        1.0  0.020834840000000004  0.07756091999999999  0.7499920100000002  1.0000
  Co  Co1       1.0  1.2e-07  0.49999989000000006  1.7e-07  1.0000
  Co  Co2       1.0  0.50000015  1e-07  0.5000002  1.0000
  Co  Co3       1.0  1.2000000000000129e-07  0.4999999200000001  0.5000003  1.0000
  Co  Co4       1.0  0.50000014  6.999999999999999e-08  2.8e-07  1.0000
  O   O1        1.0  0.39656017000000005  0.02920223  0.25003102  1.0000
  O   O2        1.0  0.10343983  0.52920216  0.24996942  1.0000
  O   O3        1.0  0.60344008  0.9707977500000002  0.7499695  1.0000
  O   O4        1.0  0.8965604300000001  0.4707978400000001  0.7500311100000001  1.0000
  O   O5        1.0  0.69371287  0.69280287  0.05090727999999999  1.0000
  O   O6        1.0  0.80628715  0.19280272000000007  0.44909334000000006  1.0000
  O   O7        1.0  0.30625466  0.3072265600000001  0.55090013  1.0000
  O   O8        1.0  0.19374554  0.8072264500000002  0.9491002800000001  1.0000
  O   O9        1.0  0.30628737  0.3071971900000001  0.94909324  1.0000
  O   O10       1.0  0.19371309000000003  0.8071972200000003  0.5509071600000001  1.0000
  O   O11       1.0  0.6937455800000001  0.6927734700000001  0.4491004000000001  1.0000
  O   O12       1.0  0.8062546999999999  0.19277351  0.050900259999999996  1.0000
