data_image0
_chemical_formula_structural       Mn5O8
_chemical_formula_sum              "Mn5 O8"
_cell_length_a       4.9541488424186495
_cell_length_b       5.83957640755218
_cell_length_c       5.988556091466677
_cell_angle_alpha    119.18032231473957
_cell_angle_beta     107.10529927174768
_cell_angle_gamma    90.00002187903563

_space_group_name_H-M_alt    "P 1"
_space_group_IT_number       1

loop_
  _space_group_symop_operation_xyz
  'x, y, z'

loop_
  _atom_site_type_symbol
  _atom_site_label
  _atom_site_symmetry_multiplicity
  _atom_site_fract_x
  _atom_site_fract_y
  _atom_site_fract_z
  _atom_site_occupancy
  Mn  Mn1       1.0  0.5000007759450001  0.9999998908159999  0.999999779723  1.0000
  Mn  Mn2       1.0  7.716531459215729e-07  0.7408903582519999  0.9999998758779998  1.0000
  Mn  Mn3       1.0  7.321336363164924e-07  0.259109441023  0.999999692397  1.0000
  Mn  Mn4       1.0  0.3425606006640001  0.2792536374130001  0.558506858292  1.0000
  Mn  Mn5       1.0  0.6574409070880002  0.720746115788  0.4414926755490002  1.0000
  O   O1        1.0  0.6025436894300003  0.661626021024  0.7758620321120001  1.0000
  O   O2        1.0  0.3974578390330002  0.33837373320800007  0.22413753256  1.0000
  O   O3        1.0  0.6025438780200001  0.11423623310600008  0.775861866029  1.0000
  O   O4        1.0  0.3974576457490001  0.885763546837  0.22413768980399998  1.0000
  O   O5        1.0  0.08809123825529999  0.896151155981  0.7923017827979999  1.0000
  O   O6        1.0  0.9119102742030001  0.103848619496  0.20769776203  1.0000
  O   O7        1.0  0.07001557093089997  0.394461351223  0.7889220212819998  1.0000
  O   O8        1.0  0.9299859103160003  0.605538432204  0.21107750428399996  1.0000
