data_image0
_chemical_formula_structural       SrTiO3
_chemical_formula_sum              "Sr1 Ti1 O3"
_cell_length_a       3.955699252
_cell_length_b       3.955699411
_cell_length_c       3.9556994269999994
_cell_angle_alpha    89.99999942062556
_cell_angle_beta     89.99999994206256
_cell_angle_gamma    90.00000013035925

_space_group_name_H-M_alt    "P 1"
_space_group_IT_number       1

loop_
  _space_group_symop_operation_xyz
  'x, y, z'

loop_
  _atom_site_type_symbol
  _atom_site_label
  _atom_site_symmetry_multiplicity
  _atom_site_fract_x
  _atom_site_fract_y
  _atom_site_fract_z
  _atom_site_occupancy
  Sr  Sr1       1.0  0.0  0.0  0.0  1.0000
  Ti  Ti1       1.0  0.4999999999999999  0.49999999999999994  0.49999999999999994  1.0000
  O   O1        1.0  2.091110976484892e-25  0.5000000000000001  0.49999999999999994  1.0000
  O   O2        1.0  0.4999999999999999  1.0  0.49999999999999994  1.0000
  O   O3        1.0  0.5  0.5  0.0  1.0000
