data_image0
_chemical_formula_structural       Al8O14Sr2
_chemical_formula_sum              "Al8 O14 Sr2"
_cell_length_a       5.60050101737791
_cell_length_b       8.02295077703825
_cell_length_c       8.022950788567412
_cell_angle_alpha    69.27181205906581
_cell_angle_beta     76.7138472456601
_cell_angle_gamma    76.71384727986691

_space_group_name_H-M_alt    "P 1"
_space_group_IT_number       1

loop_
  _space_group_symop_operation_xyz
  'x, y, z'

loop_
  _atom_site_type_symbol
  _atom_site_label
  _atom_site_symmetry_multiplicity
  _atom_site_fract_x
  _atom_site_fract_y
  _atom_site_fract_z
  _atom_site_occupancy
  Al  Al1       1.0  0.20407866  0.08217965000000002  0.2551145  1.0000
  Al  Al2       1.0  0.29592133000000004  0.7448854999999999  0.9178203499999998  1.0000
  Al  Al3       1.0  0.79592133  0.9178203499999998  0.7448855  1.0000
  Al  Al4       1.0  0.70407866  0.2551145000000001  0.08217965000000002  1.0000
  Al  Al5       1.0  0.23691835  0.6814193399999999  0.5610668200000001  1.0000
  Al  Al6       1.0  0.26308164999999994  0.43893318  0.31858066000000007  1.0000
  Al  Al7       1.0  0.7630816500000002  0.31858065999999996  0.43893318000000003  1.0000
  Al  Al8       1.0  0.7369183499999999  0.56106682  0.6814193400000002  1.0000
  O   O1        1.0  0.24999999999999994  0.47509397  0.52490603  1.0000
  O   O2        1.0  0.7500000000000001  0.52490603  0.47509397  1.0000
  O   O3        1.0  0.9526630299999999  0.0807832299999999  0.15756843  1.0000
  O   O4        1.0  0.54733697  0.8424315800000001  0.91921677  1.0000
  O   O5        1.0  0.04733696999999996  0.9192167800000001  0.8424315800000001  1.0000
  O   O6        1.0  0.4526630200000001  0.15756842999999998  0.08078323000000001  1.0000
  O   O7        1.0  0.3292162399999999  0.86639733  0.3827865099999999  1.0000
  O   O8        1.0  0.17078376  0.6172134800000001  0.13360267  1.0000
  O   O9        1.0  0.67078376  0.13360266999999995  0.61721349  1.0000
  O   O10       1.0  0.82921624  0.3827865199999999  0.8663973300000001  1.0000
  O   O11       1.0  0.9053027499999998  0.7441549800000002  0.6366850399999999  1.0000
  O   O12       1.0  0.59469725  0.36331497  0.25584502  1.0000
  O   O13       1.0  0.09469725000000002  0.25584502  0.36331497  1.0000
  O   O14       1.0  0.40530275  0.6366850399999999  0.7441549800000001  1.0000
  Sr  Sr1       1.0  0.25  0.18909851  0.8109014899999999  1.0000
  Sr  Sr2       1.0  0.7500000000000001  0.8109014900000001  0.18909851  1.0000
