data_image0
_chemical_formula_structural       In4Co2O8
_chemical_formula_sum              "In4 Co2 O8"
_cell_length_a       6.400741356074692
_cell_length_b       6.400748830898603
_cell_length_c       6.400743615282972
_cell_angle_alpha    59.99994440190727
_cell_angle_beta     60.000060242838586
_cell_angle_gamma    59.99997721479439

_space_group_name_H-M_alt    "P 1"
_space_group_IT_number       1

loop_
  _space_group_symop_operation_xyz
  'x, y, z'

loop_
  _atom_site_type_symbol
  _atom_site_label
  _atom_site_symmetry_multiplicity
  _atom_site_fract_x
  _atom_site_fract_y
  _atom_site_fract_z
  _atom_site_occupancy
  In  In1       1.0  0.6250003700000002  0.62500067  0.12499860000000002  1.0000
  In  In2       1.0  0.6250005  0.6250004299999997  0.6250005300000001  1.0000
  In  In3       1.0  0.6250006100000001  0.12499859999999977  0.6250003100000001  1.0000
  In  In4       1.0  0.12499860000000025  0.6250003799999998  0.62500063  1.0000
  Co  Co1       1.0  6.999999999999998e-08  7e-08  7.000000000000002e-08  1.0000
  Co  Co2       1.0  0.2499999700000001  0.24999996999999988  0.24999997  1.0000
  O   O1        1.0  0.8689915000000005  0.8689910599999998  0.86899129  1.0000
  O   O2        1.0  0.8689909500000004  0.86899132  0.39302637  1.0000
  O   O3        1.0  0.8689913200000005  0.39302637999999956  0.86899188  1.0000
  O   O4        1.0  0.3930263700000001  0.8689913799999999  0.8689906000000002  1.0000
  O   O5        1.0  0.8569669400000003  0.3810112099999999  0.3810113700000001  1.0000
  O   O6        1.0  0.38101067000000016  0.8569669399999997  0.3810108600000001  1.0000
  O   O7        1.0  0.3810116900000002  0.3810104999999998  0.8569669400000003  1.0000
  O   O8        1.0  0.38101073000000013  0.38101138999999984  0.3810108600000001  1.0000
