data_image0
_chemical_formula_structural       In16O24
_chemical_formula_sum              "In16 O24"
_cell_length_a       8.916009336167248
_cell_length_b       8.916009150260452
_cell_length_c       8.91600927612285
_cell_angle_alpha    109.47121177764683
_cell_angle_beta     109.47121200064196
_cell_angle_gamma    109.47121495467191

_space_group_name_H-M_alt    "P 1"
_space_group_IT_number       1

loop_
  _space_group_symop_operation_xyz
  'x, y, z'

loop_
  _atom_site_type_symbol
  _atom_site_label
  _atom_site_symmetry_multiplicity
  _atom_site_fract_x
  _atom_site_fract_y
  _atom_site_fract_z
  _atom_site_occupancy
  In  In1       1.0  1.0  0.9999999999999998  0.9999999999999999  1.0000
  In  In2       1.0  0.5  0.49999999999999994  0.0  1.0000
  In  In3       1.0  0.4999999999999999  0.9999999999999998  0.49999999999999994  1.0000
  In  In4       1.0  -1.2452017295693093e-16  0.4999999999999999  0.49999999999999994  1.0000
  In  In5       1.0  0.9661953600000001  0.74999997  0.21619534999999998  1.0000
  In  In6       1.0  0.7499999899999997  0.2161953599999998  0.9661953699999998  1.0000
  In  In7       1.0  0.78380464  0.03380463  0.25000002  1.0000
  In  In8       1.0  0.21619535999999975  0.9661953699999996  0.7499999799999998  1.0000
  In  In9       1.0  0.25000001000000005  0.7838046400000002  0.03380463  1.0000
  In  In10      1.0  0.033804639999999886  0.2500000299999997  0.7838046499999999  1.0000
  In  In11      1.0  0.71619544  0.4661954399999999  0.7500000399999998  1.0000
  In  In12      1.0  0.46619543999999996  0.7500000399999999  0.7161954499999998  1.0000
  In  In13      1.0  0.7500000399999999  0.7161954399999999  0.46619545  1.0000
  In  In14      1.0  0.24999995999999997  0.2838045599999999  0.53380455  1.0000
  In  In15      1.0  0.28380456  0.53380455  0.24999995999999997  1.0000
  In  In16      1.0  0.5338045600000001  0.24999995999999997  0.2838045499999999  1.0000
  O   O1        1.0  0.96315945  0.72788219  0.9557801699999999  1.0000
  O   O2        1.0  0.9557801599999999  0.9631594499999999  0.7278821799999998  1.0000
  O   O3        1.0  0.72788217  0.95578016  0.9631594599999997  1.0000
  O   O4        1.0  0.03684055000000001  0.27211781  0.044219829999999995  1.0000
  O   O5        1.0  0.044219839999999976  0.036840549999999986  0.27211780999999996  1.0000
  O   O6        1.0  0.2721178300000001  0.04421984  0.03684054  1.0000
  O   O7        1.0  0.5073793799999999  0.5442199299999998  0.7721020699999999  1.0000
  O   O8        1.0  0.5442199499999998  0.7721020999999999  0.5073793799999998  1.0000
  O   O9        1.0  0.77210208  0.50737937  0.54421993  1.0000
  O   O10       1.0  0.22789791999999998  0.4926206299999997  0.4557800699999999  1.0000
  O   O11       1.0  0.49262062  0.4557800699999998  0.22789792999999997  1.0000
  O   O12       1.0  0.45578005000000005  0.22789789999999988  0.49262062  1.0000
  O   O13       1.0  0.7278979400000001  0.77211781  0.23527724999999997  1.0000
  O   O14       1.0  0.77211783  0.2352772699999999  0.7278979499999999  1.0000
  O   O15       1.0  0.7647227800000002  0.27210209  0.22788221  1.0000
  O   O16       1.0  0.23527722  0.7278979099999999  0.7721177899999998  1.0000
  O   O17       1.0  0.22788216999999994  0.76472273  0.27210205  1.0000
  O   O18       1.0  0.27210205999999987  0.2278821899999999  0.7647227499999998  1.0000
  O   O19       1.0  0.73527715  0.4631593299999999  0.00737922  1.0000
  O   O20       1.0  0.46315936  0.0073792399999999  0.7352771999999999  1.0000
  O   O21       1.0  0.9926207499999999  0.2647227899999999  0.5368406299999999  1.0000
  O   O22       1.0  0.007379249999999907  0.7352772099999998  0.46315936999999996  1.0000
  O   O23       1.0  0.53684064  0.99262076  0.2647227999999999  1.0000
  O   O24       1.0  0.26472285  0.5368406699999999  0.99262078  1.0000
