data_image0
_chemical_formula_structural       Al8O36Y16
_chemical_formula_sum              "Al8 O36 Y16"
_cell_length_a       7.528466564884125
_cell_length_b       10.662681257000166
_cell_length_c       11.354207910036603
_cell_angle_alpha    89.99997876997664
_cell_angle_beta     108.6216000847646
_cell_angle_gamma    89.99998059395404

_space_group_name_H-M_alt    "P 1"
_space_group_IT_number       1

loop_
  _space_group_symop_operation_xyz
  'x, y, z'

loop_
  _atom_site_type_symbol
  _atom_site_label
  _atom_site_symmetry_multiplicity
  _atom_site_fract_x
  _atom_site_fract_y
  _atom_site_fract_z
  _atom_site_occupancy
  Al  Al1       1.0  0.21928302999999985  0.32002355000000005  0.6281953599999999  1.0000
  Al  Al2       1.0  0.7807168199999999  0.8200234299999998  0.87180456  1.0000
  Al  Al3       1.0  0.78071696  0.67997644  0.37180462  1.0000
  Al  Al4       1.0  0.21928318999999996  0.17997655000000004  0.12819546999999998  1.0000
  Al  Al5       1.0  0.6536036799999998  0.3222822  0.6158162399999998  1.0000
  Al  Al6       1.0  0.34639620999999987  0.8222821699999999  0.88418364  1.0000
  Al  Al7       1.0  0.34639631  0.6777178  0.3841837399999999  1.0000
  Al  Al8       1.0  0.6536037999999998  0.17771782  0.11581638999999999  1.0000
  O   O1        1.0  0.2106733799999999  0.4811031800000001  0.65432071  1.0000
  O   O2        1.0  0.7893266299999998  0.9811032500000001  0.8456792599999998  1.0000
  O   O3        1.0  0.78932662  0.51889683  0.34567928999999986  1.0000
  O   O4        1.0  0.21067336999999994  0.01889676  0.15432073  1.0000
  O   O5        1.0  0.69589336  0.4809767999999999  0.65907021  1.0000
  O   O6        1.0  0.30410665999999986  0.9809768399999999  0.8409297999999998  1.0000
  O   O7        1.0  0.3041066499999998  0.51902321  0.34092979999999995  1.0000
  O   O8        1.0  0.6958933299999999  0.019023170000000002  0.15907019999999997  1.0000
  O   O9        1.0  0.07615157999999983  0.5054398399999999  0.8928354899999998  1.0000
  O   O10       1.0  0.92384842  0.005439860000000001  0.6071645299999999  1.0000
  O   O11       1.0  0.92384842  0.49456016  0.10716450999999999  1.0000
  O   O12       1.0  0.07615157999999998  0.99456014  0.39283546999999996  1.0000
  O   O13       1.0  0.5654808099999998  0.49254892000000006  0.89205078  1.0000
  O   O14       1.0  0.43451916999999984  0.9925489400000002  0.60794924  1.0000
  O   O15       1.0  0.43451918999999994  0.50745108  0.10794922  1.0000
  O   O16       1.0  0.5654808299999999  0.00745106  0.39205075999999994  1.0000
  O   O17       1.0  0.23170297999999984  0.23797302999999992  0.7673931599999999  1.0000
  O   O18       1.0  0.7682970099999997  0.7379730799999998  0.7326069099999999  1.0000
  O   O19       1.0  0.7682970199999999  0.76202696  0.23260684  1.0000
  O   O20       1.0  0.23170299  0.2620269199999999  0.26739308  1.0000
  O   O21       1.0  0.07831013999999988  0.26602305  0.48153224999999983  1.0000
  O   O22       1.0  0.92168991  0.76602307  0.018467779999999996  1.0000
  O   O23       1.0  0.92168987  0.7339769500000001  0.51846776  1.0000
  O   O24       1.0  0.07831007999999992  0.23397694000000002  0.98153221  1.0000
  O   O25       1.0  0.78755682  0.2370175499999999  0.7483691099999998  1.0000
  O   O26       1.0  0.21244325999999986  0.73701759  0.7516309499999999  1.0000
  O   O27       1.0  0.21244318999999998  0.7629824500000001  0.2516309  1.0000
  O   O28       1.0  0.7875567299999999  0.2629824099999999  0.24836905  1.0000
  O   O29       1.0  0.6371199299999999  0.26961377  0.4648585099999999  1.0000
  O   O30       1.0  0.36288006  0.7696137699999999  0.03514155  1.0000
  O   O31       1.0  0.3628800699999999  0.73038623  0.5351415  1.0000
  O   O32       1.0  0.6371199399999999  0.23038623  0.96485844  1.0000
  O   O33       1.0  0.4344869299999999  0.2626671400000001  0.61769205  1.0000
  O   O34       1.0  0.5655132599999998  0.7626671699999997  0.8823079699999999  1.0000
  O   O35       1.0  0.5655130599999999  0.7373328599999998  0.3823079599999999  1.0000
  O   O36       1.0  0.43448673999999987  0.23733282999999994  0.11769203  1.0000
  Y   Y1        1.0  0.5244407499999999  0.39131967000000006  0.28670358  1.0000
  Y   Y2        1.0  0.47555928  0.89131966  0.21329641999999996  1.0000
  Y   Y3        1.0  0.47555924999999977  0.6086803300000002  0.7132964299999998  1.0000
  Y   Y4        1.0  0.5244407199999997  0.10868033  0.78670357  1.0000
  Y   Y5        1.0  0.02422339  0.4049895900000002  0.30609184  1.0000
  Y   Y6        1.0  0.97577659  0.9049895900000001  0.19390816999999996  1.0000
  Y   Y7        1.0  0.9757766199999998  0.5950104100000001  0.6939081599999999  1.0000
  Y   Y8        1.0  0.024223409999999796  0.0950104  0.8060918299999998  1.0000
  Y   Y9        1.0  0.3393768599999998  0.37179318  0.9381674199999999  1.0000
  Y   Y10       1.0  0.6606231599999999  0.8717931600000001  0.56183257  1.0000
  Y   Y11       1.0  0.66062315  0.6282068300000001  0.06183258  1.0000
  Y   Y12       1.0  0.33937684  0.12820685  0.43816741999999986  1.0000
  Y   Y13       1.0  0.8385484999999998  0.37731901000000007  0.9186909  1.0000
  Y   Y14       1.0  0.1614514899999998  0.8773189900000001  0.5813090999999999  1.0000
  Y   Y15       1.0  0.1614515  0.62268099  0.08130911  1.0000
  Y   Y16       1.0  0.83854851  0.12268101000000001  0.4186908899999999  1.0000
