data_image0
_chemical_formula_structural       Ba4O16Fe8
_chemical_formula_sum              "Ba4 O16 Fe8"
_cell_length_a       5.463133901102741
_cell_length_b       8.55772410827382
_cell_length_c       10.540036987648207
_cell_angle_alpha    113.95049911882658
_cell_angle_beta     90.04662902147629
_cell_angle_gamma    89.99989543317947

_space_group_name_H-M_alt    "P 1"
_space_group_IT_number       1

loop_
  _space_group_symop_operation_xyz
  'x, y, z'

loop_
  _atom_site_type_symbol
  _atom_site_label
  _atom_site_symmetry_multiplicity
  _atom_site_fract_x
  _atom_site_fract_y
  _atom_site_fract_z
  _atom_site_occupancy
  Ba  Ba1       1.0  0.2432716  0.13028121  0.26057133  1.0000
  Ba  Ba2       1.0  0.7417918800000002  0.86977599  0.73952717  1.0000
  Ba  Ba3       1.0  0.2772592400000001  0.61882833  0.2376445  1.0000
  Ba  Ba4       1.0  0.7751892700000002  0.38115433999999987  0.76233177  1.0000
  O   O1        1.0  0.09743281999999999  0.25968006  0.07423364000000002  1.0000
  O   O2        1.0  0.09744875  0.81453017  0.07421241  1.0000
  O   O3        1.0  0.5983064200000001  0.73832411  0.92392389  1.0000
  O   O4        1.0  0.5983029100000001  0.1856516299999999  0.9239577199999999  1.0000
  O   O5        1.0  0.6145827000000001  0.3357003100000001  0.2519900800000001  1.0000
  O   O6        1.0  0.6146153200000001  0.9162833700000002  0.25196386  1.0000
  O   O7        1.0  0.12129516  0.6640155399999998  0.7476823399999999  1.0000
  O   O8        1.0  0.12133807  0.0836700799999999  0.7477055600000001  1.0000
  O   O9        1.0  0.09236546  0.4953220099999999  0.4203516700000001  1.0000
  O   O10       1.0  0.09235660000000001  0.92501691  0.4203821300000001  1.0000
  O   O11       1.0  0.5928943700000001  0.50662169  0.5812179800000001  1.0000
  O   O12       1.0  0.5929126100000001  0.07458628999999992  0.58119945  1.0000
  O   O13       1.0  0.2590314500000001  0.45191775  0.90382201  1.0000
  O   O14       1.0  0.7621172400000003  0.5479357100000001  0.09585333  1.0000
  O   O15       1.0  0.15579733  0.28485315999999994  0.5697269  1.0000
  O   O16       1.0  0.6567266100000001  0.7157638100000001  0.43153978  1.0000
  Fe  Fe1       1.0  0.7680138600000003  0.32457658  0.08617494  1.0000
  Fe  Fe2       1.0  0.7680184700000002  0.7615912600000002  0.08612993000000001  1.0000
  Fe  Fe3       1.0  0.26732836  0.6750701600000001  0.9126810000000001  1.0000
  Fe  Fe4       1.0  0.26731422  0.23764097000000006  0.9127141800000002  1.0000
  Fe  Fe5       1.0  0.7487723400000003  0.50167583  0.4202847399999999  1.0000
  Fe  Fe6       1.0  0.7487634400000001  0.9185847400000001  0.42025956000000003  1.0000
  Fe  Fe7       1.0  0.2483696300000001  0.49911756999999995  0.58094961  1.0000
  Fe  Fe8       1.0  0.24838867  0.08183000999999998  0.58096767  1.0000
