data_image0
_chemical_formula_structural       Y4Mn8O20
_chemical_formula_sum              "Y4 Mn8 O20"
_cell_length_a       7.436393491
_cell_length_b       8.61035283900001
_cell_length_c       5.777700859000006
_cell_angle_alpha    89.99999989705414
_cell_angle_beta     90.00000001998129
_cell_angle_gamma    90.00000012922808

_space_group_name_H-M_alt    "P 1"
_space_group_IT_number       1

loop_
  _space_group_symop_operation_xyz
  'x, y, z'

loop_
  _atom_site_type_symbol
  _atom_site_label
  _atom_site_symmetry_multiplicity
  _atom_site_fract_x
  _atom_site_fract_y
  _atom_site_fract_z
  _atom_site_occupancy
  Y   Y1        1.0  0.8592979300000002  0.17107622  0.50000021  1.0000
  Y   Y2        1.0  0.14070204  0.82892365  0.50000021  1.0000
  Y   Y3        1.0  0.35929792  0.32892365  0.50000021  1.0000
  Y   Y4        1.0  0.6407020400000002  0.6710762199999999  0.50000022  1.0000
  Mn  Mn1       1.0  0.5897771100000001  0.3499557799999999  2.1e-07  1.0000
  Mn  Mn2       1.0  0.41022286  0.6500440799999999  2.2e-07  1.0000
  Mn  Mn3       1.0  0.08977711000000001  0.15004408  2.2e-07  1.0000
  Mn  Mn4       1.0  0.9102228600000001  0.84995578  2.2e-07  1.0000
  Mn  Mn5       1.0  0.4999999800000001  0.99999993  0.24496239  1.0000
  Mn  Mn6       1.0  0.9999999900000003  0.49999993  0.75503805  1.0000
  Mn  Mn7       1.0  0.49999999  0.9999999399999999  0.75503805  1.0000
  Mn  Mn8       1.0  0.9999999800000001  0.49999992999999987  0.24496239  1.0000
  O   O1        1.0  0.6030436  0.20714057  0.25644564  1.0000
  O   O2        1.0  0.39695637000000006  0.7928593  0.25644565  1.0000
  O   O3        1.0  0.10304361000000001  0.29285928999999994  0.7435547999999998  1.0000
  O   O4        1.0  0.8969563700000002  0.7071405700000001  0.7435548  1.0000
  O   O5        1.0  0.3969563600000002  0.7928593  0.7435548000000001  1.0000
  O   O6        1.0  0.6030436100000001  0.20714057  0.7435548  1.0000
  O   O7        1.0  0.8969563700000002  0.70714057  0.25644565  1.0000
  O   O8        1.0  0.10304359  0.29285929999999993  0.25644565  1.0000
  O   O9        1.0  0.8385374200000001  0.44497177999999993  0.50000022  1.0000
  O   O10       1.0  0.16146255000000004  0.5550280899999999  0.50000021  1.0000
  O   O11       1.0  0.33853742  0.055028089999999995  0.50000022  1.0000
  O   O12       1.0  0.6614625500000002  0.9449717799999998  0.50000021  1.0000
  O   O13       1.0  0.8481147900000001  0.4333018599999999  2.3e-07  1.0000
  O   O14       1.0  0.15188518000000004  0.5666980099999999  2.4e-07  1.0000
  O   O15       1.0  0.3481147900000001  0.06669801  2.3e-07  1.0000
  O   O16       1.0  0.6518851700000002  0.9333018600000001  2.4e-07  1.0000
  O   O17       1.0  0.49999999  0.4999999399999999  0.22731194  1.0000
  O   O18       1.0  0.9999999700000001  0.9999999399999999  0.77268851  1.0000
  O   O19       1.0  0.4999999700000002  0.49999993  0.7726885099999999  1.0000
  O   O20       1.0  0.9999999900000001  0.99999993  0.22731194  1.0000
