data_image0
_chemical_formula_structural       Nb2Al2O8
_chemical_formula_sum              "Nb2 Al2 O8"
_cell_length_a       3.8468687872498784
_cell_length_b       6.463524378550782
_cell_length_c       6.552360366230476
_cell_angle_alpha    106.8604533637206
_cell_angle_beta     90.00065748407943
_cell_angle_gamma    107.31120549240273

_space_group_name_H-M_alt    "P 1"
_space_group_IT_number       1

loop_
  _space_group_symop_operation_xyz
  'x, y, z'

loop_
  _atom_site_type_symbol
  _atom_site_label
  _atom_site_symmetry_multiplicity
  _atom_site_fract_x
  _atom_site_fract_y
  _atom_site_fract_z
  _atom_site_occupancy
  Nb  Nb1       1.0  0.8945594099999999  0.78914308  0.7652309199999999  1.0000
  Nb  Nb2       1.0  0.10544058999999997  0.21085691999999998  0.23476908  1.0000
  Al  Al1       1.0  0.20157040999999987  0.40312642999999987  0.8229704699999998  1.0000
  Al  Al2       1.0  0.7984295899999999  0.5968735700000001  0.17702953  1.0000
  O   O1        1.0  0.14048291999999998  0.2809475  0.52852829  1.0000
  O   O2        1.0  0.8595170799999998  0.7190525  0.4714717099999998  1.0000
  O   O3        1.0  0.0585593  0.11710531000000002  0.86499443  1.0000
  O   O4        1.0  0.9414406999999997  0.8828946899999999  0.13500557  1.0000
  O   O5        1.0  0.7369614799999998  0.47392272  0.8591753099999999  1.0000
  O   O6        1.0  0.26303851999999994  0.5260772800000001  0.14082469  1.0000
  O   O7        1.0  0.3557109299999999  0.7114293100000001  0.7946431  1.0000
  O   O8        1.0  0.64428907  0.2885706900000001  0.2053569  1.0000
