data_image0
_chemical_formula_structural       Co6O16La6
_chemical_formula_sum              "Co6 O16 La6"
_cell_length_a       5.7219197644884705
_cell_length_b       5.522379895144319
_cell_length_c       11.96294168434107
_cell_angle_alpha    90.03213120907279
_cell_angle_beta     89.96787518066918
_cell_angle_gamma    88.4445230135646

_space_group_name_H-M_alt    "P 1"
_space_group_IT_number       1

loop_
  _space_group_symop_operation_xyz
  'x, y, z'

loop_
  _atom_site_type_symbol
  _atom_site_label
  _atom_site_symmetry_multiplicity
  _atom_site_fract_x
  _atom_site_fract_y
  _atom_site_fract_z
  _atom_site_occupancy
  Co  Co1       1.0  0.80977415  0.69778823  0.00029206  1.0000
  Co  Co2       1.0  0.19124059999999998  0.1976497000000001  0.9999756200000002  1.0000
  Co  Co3       1.0  0.7605541499999999  0.7478956000000001  0.6626040000000001  1.0000
  Co  Co4       1.0  0.7597549200000001  0.7476530900000002  0.33583164  1.0000
  Co  Co5       1.0  0.24537907999999997  0.25036411  0.3338435900000001  1.0000
  Co  Co6       1.0  0.24487880999999997  0.2508648600000001  0.66558069  1.0000
  O   O1        1.0  0.8623945700000001  0.33690136  0.00033332  1.0000
  O   O2        1.0  0.13223453  0.83837534  0.00024981  1.0000
  O   O3        1.0  0.67398533  0.77899951  0.8539303000000001  1.0000
  O   O4        1.0  0.6772272200000001  0.7747414599999999  0.14814393  1.0000
  O   O5        1.0  0.32053534999999994  0.27420467  0.14775332  1.0000
  O   O6        1.0  0.32066757999999995  0.27698736  0.8525170500000001  1.0000
  O   O7        1.0  0.48188894  0.51936563  0.6436366200000001  1.0000
  O   O8        1.0  0.48194174  0.5191231099999999  0.35590054  1.0000
  O   O9        1.0  0.5294558400000001  0.01088931  0.3544128200000001  1.0000
  O   O10       1.0  0.5293562599999999  0.010844  0.6458737600000001  1.0000
  O   O11       1.0  0.8313537099999999  0.7384087500000002  0.4996981200000001  1.0000
  O   O12       1.0  0.16543619999999998  0.23210632000000003  0.4998731000000002  1.0000
  O   O13       1.0  0.9662588199999999  0.48491206  0.6975479300000001  1.0000
  O   O14       1.0  0.96719798  0.4842445  0.3025323600000001  1.0000
  O   O15       1.0  0.021393289999999995  0.9758665900000001  0.3059665400000001  1.0000
  O   O16       1.0  0.021065529999999996  0.97645218  0.6936839600000002  1.0000
  La  La1       1.0  0.2665555000000001  0.7283005700000003  0.18660185  1.0000
  La  La2       1.0  0.26695399999999997  0.72930183  0.8132298800000001  1.0000
  La  La3       1.0  0.73133262  0.2250668  0.8148516800000001  1.0000
  La  La4       1.0  0.73190116  0.22515385000000002  0.18550838  1.0000
  La  La5       1.0  0.26008159  0.7811846900000002  0.4997844600000001  1.0000
  La  La6       1.0  0.74919775  0.27234901  0.49987729000000003  1.0000
