data_image0
_chemical_formula_structural       Mn6Ba8O20
_chemical_formula_sum              "Mn6 Ba8 O20"
_cell_length_a       5.768241381390822
_cell_length_b       7.230621235419377
_cell_length_c       13.01214459100738
_cell_angle_alpha    90.02099119192485
_cell_angle_beta     90.00067319136483
_cell_angle_gamma    113.50890587525123

_space_group_name_H-M_alt    "P 1"
_space_group_IT_number       1

loop_
  _space_group_symop_operation_xyz
  'x, y, z'

loop_
  _atom_site_type_symbol
  _atom_site_label
  _atom_site_symmetry_multiplicity
  _atom_site_fract_x
  _atom_site_fract_y
  _atom_site_fract_z
  _atom_site_occupancy
  Mn  Mn1       1.0  0.5001931  0.00037326  0.49971583  1.0000
  Mn  Mn2       1.0  0.99994861  0.9998987699999999  6.028e-05  1.0000
  Mn  Mn3       1.0  0.62459069  0.24922846999999998  0.34727608  1.0000
  Mn  Mn4       1.0  0.37601629000000003  0.7519780900000002  0.65378371  1.0000
  Mn  Mn5       1.0  0.8765561599999999  0.75306233  0.84700037  1.0000
  Mn  Mn6       1.0  0.12443588999999998  0.24892619999999996  0.15264677  1.0000
  Ba  Ba1       1.0  0.9626465899999999  0.92531769  0.35809128  1.0000
  Ba  Ba2       1.0  0.0378417  0.07563502  0.6414570299999998  1.0000
  Ba  Ba3       1.0  0.53795818  0.0758768  0.85826279  1.0000
  Ba  Ba4       1.0  0.46249474999999995  0.92502841  0.14202471  1.0000
  Ba  Ba5       1.0  0.75598563  0.5119862400000001  0.11195405  1.0000
  Ba  Ba6       1.0  0.2441224  0.4882318899999999  0.8870527399999999  1.0000
  Ba  Ba7       1.0  0.7442269199999999  0.48842904  0.61312801  1.0000
  Ba  Ba8       1.0  0.25617749  0.5123472599999999  0.3881289499999999  1.0000
  O   O1        1.0  0.53423351  0.06838412  0.64419464  1.0000
  O   O2        1.0  0.46562842000000004  0.93131309  0.3562772399999999  1.0000
  O   O3        1.0  0.96563626  0.93132111  0.14348127  1.0000
  O   O4        1.0  0.03397276  0.06789001  0.8557404799999998  1.0000
  O   O5        1.0  0.7627411800000001  0.5255156299999999  0.34932615999999994  1.0000
  O   O6        1.0  0.23738897  0.474725  0.64958483  1.0000
  O   O7        1.0  0.7376853600000001  0.47531968999999996  0.8503810399999999  1.0000
  O   O8        1.0  0.26260699  0.5252358499999998  0.15038301  1.0000
  O   O9        1.0  0.38399403  0.20725183999999996  0.4616239599999999  1.0000
  O   O10       1.0  0.17806670000000005  0.7940696900000002  0.53876552  1.0000
  O   O11       1.0  0.67744377  0.7934163299999999  0.9614105899999997  1.0000
  O   O12       1.0  0.8838045799999998  0.20665677  0.03816431  1.0000
  O   O13       1.0  0.6160151699999998  0.7940612799999999  0.53875097  1.0000
  O   O14       1.0  0.8232686599999999  0.20725148  0.46159573999999987  1.0000
  O   O15       1.0  0.32284216  0.20665857999999998  0.03819008  1.0000
  O   O16       1.0  0.11598814999999996  0.79341931  0.9614228999999999  1.0000
  O   O17       1.0  0.36274153  0.22557774  0.24992493  1.0000
  O   O18       1.0  0.13526057999999994  0.77001863  0.7501742799999997  1.0000
  O   O19       1.0  0.63484218  0.77001537  0.7501583  1.0000
  O   O20       1.0  0.86264461  0.22557900999999997  0.24986713  1.0000
