data_image0
_chemical_formula_structural       Ni2O8La4
_chemical_formula_sum              "Ni2 O8 La4"
_cell_length_a       5.4878005184811425
_cell_length_b       5.647211010399991
_cell_length_c       6.895075089156918
_cell_angle_alpha    89.99997471429491
_cell_angle_beta     113.44841955558687
_cell_angle_gamma    89.99994985809755

_space_group_name_H-M_alt    "P 1"
_space_group_IT_number       1

loop_
  _space_group_symop_operation_xyz
  'x, y, z'

loop_
  _atom_site_type_symbol
  _atom_site_label
  _atom_site_symmetry_multiplicity
  _atom_site_fract_x
  _atom_site_fract_y
  _atom_site_fract_z
  _atom_site_occupancy
  Ni  Ni1       1.0  0.50000097  0.49999821999999994  6.7e-07  1.0000
  Ni  Ni2       1.0  8.999999999999999e-07  0.99999844  6.7e-07  1.0000
  O   O1        1.0  0.23761852000000008  0.24997694000000004  0.9751787  1.0000
  O   O2        1.0  0.2623803100000001  0.7499768900000001  0.024820790000000002  1.0000
  O   O3        1.0  0.7623820800000002  0.7500239800000001  0.024821220000000005  1.0000
  O   O4        1.0  0.7376175700000001  0.25002464  0.97517901  1.0000
  O   O5        1.0  0.6773066300000001  0.4496595  0.35459807  1.0000
  O   O6        1.0  0.32269355999999993  0.55034105  0.6454015200000001  1.0000
  O   O7        1.0  0.8226930900000001  0.9496594800000001  0.64540155  1.0000
  O   O8        1.0  0.17730733  0.05034033  0.3545980599999999  1.0000
  La  La1       1.0  0.8638540700000001  0.5134375799999998  0.72765669  1.0000
  La  La2       1.0  0.13614554000000004  0.4865629499999999  0.27234323000000005  1.0000
  La  La3       1.0  0.6361449000000002  0.01343746  0.2723428600000001  1.0000
  La  La4       1.0  0.3638545200000001  0.9865625700000001  0.72765694  1.0000
