data_image0
_chemical_formula_structural       Ni4Nb8O24
_chemical_formula_sum              "Ni4 Nb8 O24"
_cell_length_a       14.260650868027463
_cell_length_b       5.781612589000167
_cell_length_c       5.129161337004311
_cell_angle_alpha    90.00000244913926
_cell_angle_beta     90.00003832395666
_cell_angle_gamma    89.99998918071206

_space_group_name_H-M_alt    "P 1"
_space_group_IT_number       1

loop_
  _space_group_symop_operation_xyz
  'x, y, z'

loop_
  _atom_site_type_symbol
  _atom_site_label
  _atom_site_symmetry_multiplicity
  _atom_site_fract_x
  _atom_site_fract_y
  _atom_site_fract_z
  _atom_site_occupancy
  Ni  Ni1       1.0  6.25e-06  0.85030869  0.75001287  1.0000
  Ni  Ni2       1.0  0.4999937700000001  0.64969138  0.25001251  1.0000
  Ni  Ni3       1.0  6.3e-06  0.14969182  0.25001266  1.0000
  Ni  Ni4       1.0  0.4999937300000001  0.35030804000000004  0.7500123299999999  1.0000
  Nb  Nb1       1.0  0.1584874  0.67817824  0.2494902599999999  1.0000
  Nb  Nb2       1.0  0.3415125700000001  0.8218218900000002  0.7494900699999999  1.0000
  Nb  Nb3       1.0  0.6584839699999999  0.82182922  0.7504983799999999  1.0000
  Nb  Nb4       1.0  0.84151603  0.6781711000000001  0.25049836000000003  1.0000
  Nb  Nb5       1.0  0.8415158900000002  0.3218293899999999  0.75049839  1.0000
  Nb  Nb6       1.0  0.65848403  0.17817084  0.25049828  1.0000
  Nb  Nb7       1.0  0.3415125700000001  0.17817792  0.24949010000000002  1.0000
  Nb  Nb8       1.0  0.15848749  0.3218220199999999  0.7494901  1.0000
  O   O1        1.0  0.09340244  0.6102958999999999  0.91998567  1.0000
  O   O2        1.0  0.40659742  0.8897037500000001  0.4199854900000001  1.0000
  O   O3        1.0  0.5933984099999999  0.88969947  0.08000478  1.0000
  O   O4        1.0  0.9066016499999999  0.6103006799999999  0.58000491  1.0000
  O   O5        1.0  0.9066016600000001  0.3896997799999999  0.08000483  1.0000
  O   O6        1.0  0.5933984200000001  0.11030026  0.5800046  1.0000
  O   O7        1.0  0.40659736999999996  0.11029584999999999  0.91998537  1.0000
  O   O8        1.0  0.09340248  0.38970391  0.41998543999999993  1.0000
  O   O9        1.0  0.07743937  0.8849833199999998  0.41356727  1.0000
  O   O10       1.0  0.42256049999999995  0.61501664  0.9135665899999998  1.0000
  O   O11       1.0  0.57742272  0.61502176  0.5864736799999999  1.0000
  O   O12       1.0  0.9225774500000001  0.8849785099999999  0.08647375  1.0000
  O   O13       1.0  0.9225774500000001  0.11502211000000001  0.58647384  1.0000
  O   O14       1.0  0.5774226499999999  0.38497806999999984  0.08647342000000001  1.0000
  O   O15       1.0  0.42256049  0.3849828699999999  0.41356676  1.0000
  O   O16       1.0  0.07743957  0.11501683999999998  0.91356711  1.0000
  O   O17       1.0  0.25644413  0.8784468600000002  0.07868488  1.0000
  O   O18       1.0  0.24355568  0.6215528399999998  0.5786849500000001  1.0000
  O   O19       1.0  0.7564513000000002  0.62157542  0.9212831199999999  1.0000
  O   O20       1.0  0.74354881  0.8784245700000001  0.42128313999999994  1.0000
  O   O21       1.0  0.74354878  0.12157554  0.92128314  1.0000
  O   O22       1.0  0.75645124  0.37842456999999985  0.4212831000000001  1.0000
  O   O23       1.0  0.24355578  0.37844713  0.07868494000000001  1.0000
  O   O24       1.0  0.2564442000000001  0.12155279999999999  0.57868491  1.0000
