data_image0
_chemical_formula_structural       CoO2
_chemical_formula_sum              "Co1 O2"
_cell_length_a       2.842162839522621
_cell_length_b       2.842417750054903
_cell_length_c       5.943628797290428
_cell_angle_alpha    61.15873144465996
_cell_angle_beta     61.28977085577895
_cell_angle_gamma    60.057044572418775

_space_group_name_H-M_alt    "P 1"
_space_group_IT_number       1

loop_
  _space_group_symop_operation_xyz
  'x, y, z'

loop_
  _atom_site_type_symbol
  _atom_site_label
  _atom_site_symmetry_multiplicity
  _atom_site_fract_x
  _atom_site_fract_y
  _atom_site_fract_z
  _atom_site_occupancy
  Co  Co1       1.0  0.9996679600000001  0.99966768  0.00666093  1.0000
  O   O1        1.0  0.4600572000000004  0.4616513800000001  0.8163054799999999  1.0000
  O   O2        1.0  0.5392748399999999  0.53768093  0.19703359  1.0000
