data_image0
_chemical_formula_structural       Mn2O2
_chemical_formula_sum              "Mn2 O2"
_cell_length_a       3.4373126600786783
_cell_length_b       3.437283248679223
_cell_length_c       4.58933144300001
_cell_angle_alpha    89.99999431585461
_cell_angle_beta     90.00000494959671
_cell_angle_gamma    89.9999959218185

_space_group_name_H-M_alt    "P 1"
_space_group_IT_number       1

loop_
  _space_group_symop_operation_xyz
  'x, y, z'

loop_
  _atom_site_type_symbol
  _atom_site_label
  _atom_site_symmetry_multiplicity
  _atom_site_fract_x
  _atom_site_fract_y
  _atom_site_fract_z
  _atom_site_occupancy
  Mn  Mn1       1.0  3.9999999900000026e-08  0.99999999  0.9999305  1.0000
  Mn  Mn2       1.0  0.49999999000000017  0.5000000100000002  0.49993048  1.0000
  O   O1        1.0  0.9999999500000001  0.50000001  0.24993466000000003  1.0000
  O   O2        1.0  0.5000000099999999  0.9999999900000001  0.74993467  1.0000
