data_image0
_chemical_formula_structural       Fe8O24Al8
_chemical_formula_sum              "Fe8 O24 Al8"
_cell_length_a       5.011902034000027
_cell_length_b       8.635016018000009
_cell_length_c       9.35500689200002
_cell_angle_alpha    89.99999746328932
_cell_angle_beta     89.99999782364998
_cell_angle_gamma    89.99999987088441

_space_group_name_H-M_alt    "P 1"
_space_group_IT_number       1

loop_
  _space_group_symop_operation_xyz
  'x, y, z'

loop_
  _atom_site_type_symbol
  _atom_site_label
  _atom_site_symmetry_multiplicity
  _atom_site_fract_x
  _atom_site_fract_y
  _atom_site_fract_z
  _atom_site_occupancy
  Fe  Fe1       1.0  0.6850994400000001  0.34956251  0.5802017400000001  1.0000
  Fe  Fe2       1.0  0.31490047  0.65043753  0.08020172  1.0000
  Fe  Fe3       1.0  0.81490049  0.8495625000000001  0.08020173  1.0000
  Fe  Fe4       1.0  0.18509946  0.15043752000000002  0.58020173  1.0000
  Fe  Fe5       1.0  0.16699169  0.4677372000000001  0.7988469600000001  1.0000
  Fe  Fe6       1.0  0.8330082999999999  0.5322628200000001  0.2988469599999999  1.0000
  Fe  Fe7       1.0  0.33300825999999994  0.96773719  0.29884696999999993  1.0000
  Fe  Fe8       1.0  0.6669917  0.03226281  0.7988469599999999  1.0000
  O   O1        1.0  0.4862673100000001  0.17912953  0.4171374500000001  1.0000
  O   O2        1.0  0.51373266  0.8208705000000001  0.91713744  1.0000
  O   O3        1.0  0.01373264  0.6791295200000002  0.91713745  1.0000
  O   O4        1.0  0.9862672899999998  0.32087051  0.4171374500000001  1.0000
  O   O5        1.0  0.9992016899999999  0.01062465  0.42910048  1.0000
  O   O6        1.0  0.00079825  0.9893753600000001  0.9291004799999999  1.0000
  O   O7        1.0  0.50079826  0.51062464  0.92910049  1.0000
  O   O8        1.0  0.4992017000000001  0.48937538  0.42910048  1.0000
  O   O9        1.0  0.16425497  0.4955950900000001  0.20005526000000004  1.0000
  O   O10       1.0  0.8357449799999997  0.50440492  0.70005526  1.0000
  O   O11       1.0  0.33574497  0.9955950800000001  0.70005527  1.0000
  O   O12       1.0  0.66425501  0.00440494  0.20005526000000004  1.0000
  O   O13       1.0  0.6461  0.3330289100000001  0.19498825000000003  1.0000
  O   O14       1.0  0.35389997999999995  0.66697112  0.69498823  1.0000
  O   O15       1.0  0.85389997  0.8330289  0.69498824  1.0000
  O   O16       1.0  0.14609999  0.16697111  0.19498825000000003  1.0000
  O   O17       1.0  0.33614663  0.3317931700000001  0.67195435  1.0000
  O   O18       1.0  0.66385333  0.66820686  0.17195437  1.0000
  O   O19       1.0  0.16385332  0.8317931900000001  0.17195436000000003  1.0000
  O   O20       1.0  0.8361466  0.16820687  0.6719543599999999  1.0000
  O   O21       1.0  0.00053791  0.32505565  0.9434278300000001  1.0000
  O   O22       1.0  0.9994620500000001  0.6749443700000001  0.44342783  1.0000
  O   O23       1.0  0.49946203999999983  0.82505565  0.44342783  1.0000
  O   O24       1.0  0.5005378999999999  0.17494436  0.9434278300000001  1.0000
  Al  Al1       1.0  0.6680491499999999  0.3452384999999999  0.0025422  1.0000
  Al  Al2       1.0  0.3319508  0.6547615400000002  0.5025422100000001  1.0000
  Al  Al3       1.0  0.8319508100000002  0.8452385100000002  0.5025422100000001  1.0000
  Al  Al4       1.0  0.16804915  0.15476153  0.0025422  1.0000
  Al  Al5       1.0  0.3189820300000001  0.33721654  0.3055453599999999  1.0000
  Al  Al6       1.0  0.68101795  0.6627834900000001  0.80554538  1.0000
  Al  Al7       1.0  0.18101794  0.83721654  0.80554537  1.0000
  Al  Al8       1.0  0.8189820099999999  0.16278349  0.30554537  1.0000
