data_image0
_chemical_formula_structural       Co4O4
_chemical_formula_sum              "Co4 O4"
_cell_length_a       5.629621457000004
_cell_length_b       3.269597276000002
_cell_length_c       5.276954496000008
_cell_angle_alpha    89.99999576236125
_cell_angle_beta     89.99999549303152
_cell_angle_gamma    90.00000025780606

_space_group_name_H-M_alt    "P 1"
_space_group_IT_number       1

loop_
  _space_group_symop_operation_xyz
  'x, y, z'

loop_
  _atom_site_type_symbol
  _atom_site_label
  _atom_site_symmetry_multiplicity
  _atom_site_fract_x
  _atom_site_fract_y
  _atom_site_fract_z
  _atom_site_occupancy
  Co  Co1       1.0  7.121000000000002e-05  0.9999999899999998  0.00019163999999999997  1.0000
  Co  Co2       1.0  0.3332620900000001  0.9999999999999999  0.50019163  1.0000
  Co  Co3       1.0  0.8332621000000002  0.49999999  0.50019162  1.0000
  Co  Co4       1.0  0.5000712000000002  0.5  0.00019163  1.0000
  O   O1        1.0  0.33293913  1.0000000000000015e-08  0.8790385699999999  1.0000
  O   O2        1.0  0.8329391500000001  0.4999999999999999  0.8790385799999999  1.0000
  O   O3        1.0  0.00039417  9.999999999999999e-09  0.37903856  1.0000
  O   O4        1.0  0.50039415  0.5000000099999999  0.37903856999999996  1.0000
