data_image0
_chemical_formula_structural       Mg8Nb4O18
_chemical_formula_sum              "Mg8 Nb4 O18"
_cell_length_a       5.234716933007203
_cell_length_b       5.234716749254518
_cell_length_c       14.250613631000645
_cell_angle_alpha    89.99997168950534
_cell_angle_beta     90.0000290251126
_cell_angle_gamma    120.00019131288369

_space_group_name_H-M_alt    "P 1"
_space_group_IT_number       1

loop_
  _space_group_symop_operation_xyz
  'x, y, z'

loop_
  _atom_site_type_symbol
  _atom_site_label
  _atom_site_symmetry_multiplicity
  _atom_site_fract_x
  _atom_site_fract_y
  _atom_site_fract_z
  _atom_site_occupancy
  Mg  Mg1       1.0  0.3333330899999999  0.66666645  0.9837409499999998  1.0000
  Mg  Mg2       1.0  0.33333357999999996  0.6666670099999998  0.48374095999999994  1.0000
  Mg  Mg3       1.0  0.6666669100000001  0.3333335499999999  0.01625905  1.0000
  Mg  Mg4       1.0  0.6666664200000002  0.33333299  0.51625904  1.0000
  Mg  Mg5       1.0  0.33333333000000004  0.6666663699999998  0.69122381  1.0000
  Mg  Mg6       1.0  0.3333336  0.6666669  0.19122381  1.0000
  Mg  Mg7       1.0  0.6666666700000002  0.33333361999999983  0.30877620000000006  1.0000
  Mg  Mg8       1.0  0.6666664000000001  0.33333311  0.8087761900000001  1.0000
  Nb  Nb1       1.0  1.8999999968240008e-07  0.9999998999999998  0.14222941000000003  1.0000
  Nb  Nb2       1.0  2.7000000000857087e-07  0.99999971  0.64222941  1.0000
  Nb  Nb3       1.0  0.9999998100000003  9.999999999999986e-08  0.8577705900000001  1.0000
  Nb  Nb4       1.0  0.9999997300000003  2.899999999999999e-07  0.35777059  1.0000
  O   O1        1.0  0.2910927500000001  9.999999999999997e-07  0.25000009  1.0000
  O   O2        1.0  0.7089081100000001  0.7089081899999999  0.25  1.0000
  O   O3        1.0  9.100000000092491e-07  0.2910929900000001  0.24999992000000001  1.0000
  O   O4        1.0  0.29109189  0.29109181  0.7499999999999999  1.0000
  O   O5        1.0  0.9999990900000001  0.70890702  0.7500000799999998  1.0000
  O   O6        1.0  0.7089072499999998  0.9999989999999997  0.7499999100000001  1.0000
  O   O7        1.0  0.32036841  0.3492119100000001  0.08410458  1.0000
  O   O8        1.0  0.02884325999999984  0.6796320799999997  0.08410453  1.0000
  O   O9        1.0  0.6507884699999998  0.97115627  0.08410466  1.0000
  O   O10       1.0  0.32036826  0.9711566599999998  0.58410462  1.0000
  O   O11       1.0  0.65078828  0.6796315599999999  0.5841045600000001  1.0000
  O   O12       1.0  0.028843849999999987  0.34921128  0.58410459  1.0000
  O   O13       1.0  0.6796315900000001  0.6507880899999999  0.91589541  1.0000
  O   O14       1.0  0.9711567400000003  0.3203679300000001  0.9158954700000002  1.0000
  O   O15       1.0  0.3492115300000001  0.02884373  0.9158953400000001  1.0000
  O   O16       1.0  0.6796317300000001  0.02884334  0.41589538  1.0000
  O   O17       1.0  0.34921172000000017  0.32036844  0.41589544  1.0000
  O   O18       1.0  0.9711561500000001  0.6507887099999999  0.41589542  1.0000
