data_image0
_chemical_formula_structural       Sr16Mn12O40
_chemical_formula_sum              "Sr16 Mn12 O40"
_cell_length_a       5.541144687457697
_cell_length_b       12.513745378001717
_cell_length_c       12.83605823508999
_cell_angle_alpha    90.04998396230815
_cell_angle_beta     89.99997407918612
_cell_angle_gamma    90.00063510970911

_space_group_name_H-M_alt    "P 1"
_space_group_IT_number       1

loop_
  _space_group_symop_operation_xyz
  'x, y, z'

loop_
  _atom_site_type_symbol
  _atom_site_label
  _atom_site_symmetry_multiplicity
  _atom_site_fract_x
  _atom_site_fract_y
  _atom_site_fract_z
  _atom_site_occupancy
  Sr  Sr1       1.0  0.7499948  0.26140623999999996  0.11686658999999999  1.0000
  Sr  Sr2       1.0  0.7499973199999999  0.7381782099999997  0.88500822  1.0000
  Sr  Sr3       1.0  0.24999569  0.7380728899999999  0.6151675700000001  1.0000
  Sr  Sr4       1.0  0.2499924299999999  0.2618117400000001  0.38344924  1.0000
  Sr  Sr5       1.0  0.2500263599999999  0.7614867500000001  0.1154556  1.0000
  Sr  Sr6       1.0  0.25002871  0.23836843999999996  0.88591193  1.0000
  Sr  Sr7       1.0  0.7500306300000001  0.23826172  0.6147035700000001  1.0000
  Sr  Sr8       1.0  0.7500239699999999  0.76145749  0.38421829  1.0000
  Sr  Sr9       1.0  0.7499663999999999  0.4688660500000001  0.35729642000000006  1.0000
  Sr  Sr10      1.0  0.7500158599999998  0.53048715  0.6429281499999999  1.0000
  Sr  Sr11      1.0  0.25002455  0.5310171799999999  0.8569668900000001  1.0000
  Sr  Sr12      1.0  0.24997181999999998  0.46856946  0.14276034  1.0000
  Sr  Sr13      1.0  0.25000026  0.9694029000000001  0.35738339  1.0000
  Sr  Sr14      1.0  0.25001726  0.03075812  0.6427741000000001  1.0000
  Sr  Sr15      1.0  0.75001716  0.031196369999999998  0.85692166  1.0000
  Sr  Sr16      1.0  0.7499997499999999  0.96886859  0.14242859  1.0000
  Mn  Mn1       1.0  0.7499997099999999  0.12944005  0.34726578  1.0000
  Mn  Mn2       1.0  0.7500115099999999  0.8690158  0.6528332199999999  1.0000
  Mn  Mn3       1.0  0.2500101299999999  0.8697972099999999  0.84788214  1.0000
  Mn  Mn4       1.0  0.24999823  0.12924168  0.15252501999999998  1.0000
  Mn  Mn5       1.0  0.24995877999999994  0.63103345  0.34692718  1.0000
  Mn  Mn6       1.0  0.2500183  0.36879286999999994  0.65319794  1.0000
  Mn  Mn7       1.0  0.7500259099999999  0.3697131799999999  0.84801108  1.0000
  Mn  Mn8       1.0  0.7499656099999997  0.6301390899999999  0.15201658  1.0000
  Mn  Mn9       1.0  0.7499981199999998  0.00033425999999999996  0.49962149000000006  1.0000
  Mn  Mn10      1.0  0.24999704  0.99995699  0.9999776299999998  1.0000
  Mn  Mn11      1.0  0.25002265  0.49995717999999995  0.5000621099999999  1.0000
  Mn  Mn12      1.0  0.7500289300000001  0.4999358400000001  1.4429999999999999e-05  1.0000
  O   O1        1.0  0.5209992599999999  0.10987954999999999  0.4623707400000001  1.0000
  O   O2        1.0  0.5214942  0.8905658099999999  0.53741774  1.0000
  O   O3        1.0  0.4792073700000001  0.8902622199999999  0.9628843600000001  1.0000
  O   O4        1.0  0.4788727999999999  0.10948480999999999  0.03735364  1.0000
  O   O5        1.0  0.52086531  0.609737  0.037141959999999995  1.0000
  O   O6        1.0  0.5208336299999999  0.39044358  0.96289713  1.0000
  O   O7        1.0  0.47869748  0.3903881900000001  0.53787719  1.0000
  O   O8        1.0  0.47869626  0.60972024  0.46209791000000006  1.0000
  O   O9        1.0  0.02135575  0.6097183  0.46216900999999994  1.0000
  O   O10       1.0  0.02137482  0.3903884699999998  0.53786373  1.0000
  O   O11       1.0  0.9792622  0.3904513499999999  0.9628791800000001  1.0000
  O   O12       1.0  0.9792103999999999  0.60973182  0.03721454999999999  1.0000
  O   O13       1.0  0.02111586  0.10948144  0.03735787  1.0000
  O   O14       1.0  0.02077415  0.8902670399999998  0.9628644899999999  1.0000
  O   O15       1.0  0.9784962199999998  0.89056495  0.53740012  1.0000
  O   O16       1.0  0.9789946199999998  0.10988055  0.46237297999999993  1.0000
  O   O17       1.0  0.50008554  0.11448628  0.24982522  1.0000
  O   O18       1.0  0.5000343599999999  0.8873546099999998  0.7500337600000001  1.0000
  O   O19       1.0  0.9997005399999999  0.6128947899999999  0.24992324  1.0000
  O   O20       1.0  0.9999109599999998  0.38719774  0.75021339  1.0000
  O   O21       1.0  0.9999419599999999  0.11448163999999998  0.24983797  1.0000
  O   O22       1.0  9.735e-05  0.8873560499999997  0.74998737  1.0000
  O   O23       1.0  0.49977797  0.61290072  0.24973605999999998  1.0000
  O   O24       1.0  0.4999707899999999  0.3871871199999999  0.75028285  1.0000
  O   O25       1.0  0.7499843299999999  0.4626593500000001  0.14463369  1.0000
  O   O26       1.0  0.7500494399999996  0.53746541  0.85549903  1.0000
  O   O27       1.0  0.25005858  0.5377887200000001  0.64469425  1.0000
  O   O28       1.0  0.24998622  0.46235747  0.35525982000000006  1.0000
  O   O29       1.0  0.2499937699999999  0.96265335  0.14504501  1.0000
  O   O30       1.0  0.25001349  0.03735991  0.8556531000000002  1.0000
  O   O31       1.0  0.75001021  0.03763466  0.64424533  1.0000
  O   O32       1.0  0.74998845  0.96268514  0.35461502999999994  1.0000
  O   O33       1.0  0.75000721  0.27508840999999995  0.3419871600000001  1.0000
  O   O34       1.0  0.75000088  0.7241945000000001  0.6582867500000001  1.0000
  O   O35       1.0  0.2499946  0.7247821499999999  0.84166234  1.0000
  O   O36       1.0  0.24999456  0.27488087  0.15751873  1.0000
  O   O37       1.0  0.2499719  0.77603922  0.3414006800000001  1.0000
  O   O38       1.0  0.25000556  0.22401597999999998  0.65874595  1.0000
  O   O39       1.0  0.7500400799999999  0.22468347999999996  0.8419610500000001  1.0000
  O   O40       1.0  0.7499935299999998  0.7753419199999999  0.15820566999999996  1.0000
