data_image0
_chemical_formula_structural       Nb8Mn4O24
_chemical_formula_sum              "Nb8 Mn4 O24"
_cell_length_a       14.63772545585305
_cell_length_b       5.87929529815251
_cell_length_c       5.193589516978266
_cell_angle_alpha    89.99823381008422
_cell_angle_beta     90.00001203909845
_cell_angle_gamma    90.00002189113394

_space_group_name_H-M_alt    "P 1"
_space_group_IT_number       1

loop_
  _space_group_symop_operation_xyz
  'x, y, z'

loop_
  _atom_site_type_symbol
  _atom_site_label
  _atom_site_symmetry_multiplicity
  _atom_site_fract_x
  _atom_site_fract_y
  _atom_site_fract_z
  _atom_site_occupancy
  Nb  Nb1       1.0  0.16196386  0.6761032899999999  0.25989928  1.0000
  Nb  Nb2       1.0  0.33801908000000014  0.8238313199999999  0.75990704  1.0000
  Nb  Nb3       1.0  0.66196391  0.82389681  0.74010088  1.0000
  Nb  Nb4       1.0  0.8380189300000002  0.6761685899999998  0.24009309000000004  1.0000
  Nb  Nb5       1.0  0.8380378400000001  0.3238902899999999  0.7401091600000002  1.0000
  Nb  Nb6       1.0  0.6619783200000001  0.17618096  0.24008145  1.0000
  Nb  Nb7       1.0  0.33803789000000006  0.1761099199999999  0.25989097  1.0000
  Nb  Nb8       1.0  0.16197836  0.3238188299999999  0.7599187  1.0000
  Mn  Mn1       1.0  0.9999949600000001  0.8312565899999997  0.7500339  1.0000
  Mn  Mn2       1.0  0.49999487  0.6687432699999998  0.24996608  1.0000
  Mn  Mn3       1.0  5.15e-06  0.16872369  0.24999132  1.0000
  Mn  Mn4       1.0  0.50000512  0.3312763499999999  0.75000837  1.0000
  O   O1        1.0  0.09782339000000001  0.6031776499999998  0.9355288800000001  1.0000
  O   O2        1.0  0.40215273000000007  0.8966848499999999  0.43550403000000004  1.0000
  O   O3        1.0  0.5978234300000002  0.8968223099999999  0.06447099000000002  1.0000
  O   O4        1.0  0.9021525400000001  0.6033152399999998  0.56449595  1.0000
  O   O5        1.0  0.9021743300000002  0.39680574  0.06448623  1.0000
  O   O6        1.0  0.5978470100000002  0.10332641  0.5644823  1.0000
  O   O7        1.0  0.40217448  0.10319456  0.9355137000000002  1.0000
  O   O8        1.0  0.09784699  0.3966732399999999  0.4355174900000002  1.0000
  O   O9        1.0  0.08085462000000002  0.8813584099999998  0.40552216  1.0000
  O   O10       1.0  0.41910025000000006  0.6184905199999998  0.9055289400000002  1.0000
  O   O11       1.0  0.5808548500000001  0.6186414699999999  0.59447772  1.0000
  O   O12       1.0  0.9190999700000002  0.8815097599999997  0.09447077  1.0000
  O   O13       1.0  0.9191462900000003  0.11862368999999992  0.59450432  1.0000
  O   O14       1.0  0.58090286  0.3815280799999999  0.0944456  1.0000
  O   O15       1.0  0.4191464100000001  0.3813764299999999  0.40549564  1.0000
  O   O16       1.0  0.08090277  0.11847167  0.90555441  1.0000
  O   O17       1.0  0.2561579600000001  0.8743247399999999  0.08869876  1.0000
  O   O18       1.0  0.24381532000000003  0.6256536199999998  0.58871173  1.0000
  O   O19       1.0  0.75615777  0.62567521  0.91130151  1.0000
  O   O20       1.0  0.74381529  0.8743464999999997  0.41128847  1.0000
  O   O21       1.0  0.7438409400000002  0.12567287  0.9112972900000001  1.0000
  O   O22       1.0  0.7561851699999999  0.37434336  0.41129158  1.0000
  O   O23       1.0  0.24384103000000001  0.37432714999999994  0.08870278000000001  1.0000
  O   O24       1.0  0.25618528  0.12565662  0.58870852  1.0000
