data_image0
_chemical_formula_structural       Mn4Ni2O8
_chemical_formula_sum              "Mn4 Ni2 O8"
_cell_length_a       6.126066894489588
_cell_length_b       6.2979873785093385
_cell_length_c       5.736711477828459
_cell_angle_alpha    60.98843611359422
_cell_angle_beta     64.03505841596973
_cell_angle_gamma    54.976502567400644

_space_group_name_H-M_alt    "P 1"
_space_group_IT_number       1

loop_
  _space_group_symop_operation_xyz
  'x, y, z'

loop_
  _atom_site_type_symbol
  _atom_site_label
  _atom_site_symmetry_multiplicity
  _atom_site_fract_x
  _atom_site_fract_y
  _atom_site_fract_z
  _atom_site_occupancy
  Mn  Mn1       1.0  0.6220304099999999  0.6326380200000001  0.1317397399999999  1.0000
  Mn  Mn2       1.0  0.6173642499999998  0.6279691000000001  0.6364146599999999  1.0000
  Mn  Mn3       1.0  0.63641525  0.11825036000000001  0.6173702899999999  1.0000
  Mn  Mn4       1.0  0.13175159999999994  0.6135857799999999  0.6220334399999999  1.0000
  Ni  Ni1       1.0  0.9884747299999999  0.011523530000000207  0.9884840299999996  1.0000
  Ni  Ni2       1.0  0.23846375000000003  0.2615259400000001  0.23847719  1.0000
  O   O1        1.0  0.8893744299999999  0.8429053000000003  0.8600063899999998  1.0000
  O   O2        1.0  0.86001442  0.4077116200000002  0.8893665499999998  1.0000
  O   O3        1.0  0.8422724199999998  0.3899713300000001  0.4071043799999998  1.0000
  O   O4        1.0  0.4070985799999999  0.3606411600000001  0.84228399  1.0000
  O   O5        1.0  0.8646081699999999  0.8758959800000002  0.39376241  1.0000
  O   O6        1.0  0.3937642599999999  0.8657509200000002  0.8645940399999998  1.0000
  O   O7        1.0  0.38427002999999976  0.8562395800000003  0.3740953299999999  1.0000
  O   O8        1.0  0.37409798999999994  0.3853916900000001  0.38426784  1.0000
