data_image0
_chemical_formula_structural       Sr4Mn4O12
_chemical_formula_sum              "Sr4 Mn4 O12"
_cell_length_a       5.514483070384726
_cell_length_b       5.514482710702983
_cell_length_c       9.214858556012631
_cell_angle_alpha    90.00003260899568
_cell_angle_beta     90.00001772598829
_cell_angle_gamma    119.88420385283432

_space_group_name_H-M_alt    "P 1"
_space_group_IT_number       1

loop_
  _space_group_symop_operation_xyz
  'x, y, z'

loop_
  _atom_site_type_symbol
  _atom_site_label
  _atom_site_symmetry_multiplicity
  _atom_site_fract_x
  _atom_site_fract_y
  _atom_site_fract_z
  _atom_site_occupancy
  Sr  Sr1       1.0  0.0224474  0.02244711  0.50000053  1.0000
  Sr  Sr2       1.0  0.97755275  0.97755278  0.9999994  1.0000
  Sr  Sr3       1.0  0.6615520200000002  0.33844795000000016  0.7499999199999999  1.0000
  Sr  Sr4       1.0  0.33844812000000013  0.6615520400000001  0.24999998  1.0000
  Mn  Mn1       1.0  0.6454922500000002  0.3103746800000001  0.11262976  1.0000
  Mn  Mn2       1.0  0.3103747800000001  0.6454923400000001  0.8873709999999999  1.0000
  Mn  Mn3       1.0  0.3545077800000001  0.6896250100000001  0.6126289699999999  1.0000
  Mn  Mn4       1.0  0.68962544  0.3545075400000002  0.38737019  1.0000
  O   O1        1.0  0.54925391  0.54925436  0.50000037  1.0000
  O   O2        1.0  0.45074577000000005  0.45074684000000004  0.99999987  1.0000
  O   O3        1.0  0.55016286  0.0490553300000001  0.51884224  1.0000
  O   O4        1.0  0.04905740000000002  0.55016319  0.48115819999999987  1.0000
  O   O5        1.0  0.44983579000000007  0.9509428500000001  0.01884173  1.0000
  O   O6        1.0  0.9509441600000003  0.4498368400000002  0.9811575699999999  1.0000
  O   O7        1.0  0.18004668000000004  0.8199529900000002  0.74999988  1.0000
  O   O8        1.0  0.8199533100000002  0.18004623  0.24999982  1.0000
  O   O9        1.0  0.1819897100000001  0.36562645  0.73345913  1.0000
  O   O10       1.0  0.3656259600000001  0.18198928  0.26654111  1.0000
  O   O11       1.0  0.8180110700000002  0.6343740200000001  0.23345894  1.0000
  O   O12       1.0  0.63437347  0.81801066  0.76654091  1.0000
