data_image0
_chemical_formula_structural       Al20O48Y12
_chemical_formula_sum              "Al20 O48 Y12"
_cell_length_a       10.559802814140435
_cell_length_b       10.5598028655246
_cell_length_c       10.559802884577167
_cell_angle_alpha    109.4712244621644
_cell_angle_beta     109.47122421185928
_cell_angle_gamma    109.47122413876141

_space_group_name_H-M_alt    "P 1"
_space_group_IT_number       1

loop_
  _space_group_symop_operation_xyz
  'x, y, z'

loop_
  _atom_site_type_symbol
  _atom_site_label
  _atom_site_symmetry_multiplicity
  _atom_site_fract_x
  _atom_site_fract_y
  _atom_site_fract_z
  _atom_site_occupancy
  Al  Al1       1.0  0.9999999999999998  0.49999999999999994  1.0  1.0000
  Al  Al2       1.0  0.9999999999999998  0.0  0.5  1.0000
  Al  Al3       1.0  0.49999999999999983  0.49999999999999994  0.49999999999999994  1.0000
  Al  Al4       1.0  0.5  0.0  0.0  1.0000
  Al  Al5       1.0  0.49999999999999983  0.9999999999999999  0.49999999999999994  1.0000
  Al  Al6       1.0  0.4999999999999999  0.49999999999999983  0.0  1.0000
  Al  Al7       1.0  -6.308203159656415e-17  0.49999999999999994  0.49999999999999994  1.0000
  Al  Al8       1.0  0.0  0.0  0.0  1.0000
  Al  Al9       1.0  0.3749999999999998  0.7499999999999999  0.625  1.0000
  Al  Al10      1.0  0.12499999999999989  0.25  0.8750000100000002  1.0000
  Al  Al11      1.0  0.6250000099999999  0.8750000099999998  0.24999999999999992  1.0000
  Al  Al12      1.0  0.8750000099999997  0.62500001  0.7499999999999999  1.0000
  Al  Al13      1.0  0.75  0.3750000099999999  0.12500001  1.0000
  Al  Al14      1.0  0.24999999999999986  0.12500001  0.37500001  1.0000
  Al  Al15      1.0  0.6249999899999998  0.24999999999999997  0.37499999999999994  1.0000
  Al  Al16      1.0  0.8749999999999998  0.7499999999999999  0.12499999000000002  1.0000
  Al  Al17      1.0  0.3749999899999999  0.12499998999999999  0.75  1.0000
  Al  Al18      1.0  0.1249999899999999  0.3749999899999999  0.24999999999999992  1.0000
  Al  Al19      1.0  0.24999999999999978  0.6249999899999998  0.87499999  1.0000
  Al  Al20      1.0  0.7499999999999999  0.8749999899999998  0.62499999  1.0000
  O   O1        1.0  0.01850862999999985  0.6983369299999999  0.11752853999999992  1.0000
  O   O2        1.0  0.9191915999999997  0.8016630499999999  0.3201716600000001  1.0000
  O   O3        1.0  0.5808083799999999  0.4009800700000001  0.38247147  1.0000
  O   O4        1.0  0.48149139000000013  0.09901993000000002  0.17982831000000002  1.0000
  O   O5        1.0  0.32017167  0.41919161  0.30166304999999993  1.0000
  O   O6        1.0  0.11752852999999992  0.5185086299999999  0.19833693000000002  1.0000
  O   O7        1.0  0.17982830999999969  0.9814913899999996  0.59901994  1.0000
  O   O8        1.0  0.3824714599999998  0.08080836999999993  0.9009800599999999  1.0000
  O   O9        1.0  0.9009800599999999  0.8824714600000001  0.58080837  1.0000
  O   O10       1.0  0.59901993  0.67982831  0.4814913900000001  1.0000
  O   O11       1.0  0.19833692999999988  0.6175285399999999  0.01850863  1.0000
  O   O12       1.0  0.3016630499999999  0.8201716699999998  0.9191916099999999  1.0000
  O   O13       1.0  0.9814913599999997  0.30166305999999987  0.88247146  1.0000
  O   O14       1.0  0.08080839999999986  0.19833695999999998  0.67982834  1.0000
  O   O15       1.0  0.4191916199999998  0.59901993  0.6175285399999999  1.0000
  O   O16       1.0  0.5185086099999999  0.9009800699999999  0.82017169  1.0000
  O   O17       1.0  0.6798283299999998  0.5808084  0.6983369600000001  1.0000
  O   O18       1.0  0.8824714599999998  0.4814913699999999  0.8016630599999999  1.0000
  O   O19       1.0  0.8201716899999999  0.01850861000000003  0.4009800700000001  1.0000
  O   O20       1.0  0.6175285399999999  0.9191916299999999  0.09901994  1.0000
  O   O21       1.0  0.09901993999999988  0.11752854  0.4191916299999999  1.0000
  O   O22       1.0  0.4009800699999999  0.32017168999999995  0.51850862  1.0000
  O   O23       1.0  0.8016630599999998  0.38247145999999993  0.9814913600000001  1.0000
  O   O24       1.0  0.69833696  0.17982832999999993  0.08080840000000002  1.0000
  O   O25       1.0  0.5185086299999999  0.11752854  0.69833693  1.0000
  O   O26       1.0  0.41919161  0.32017167000000013  0.8016630500000002  1.0000
  O   O27       1.0  0.08080836999999991  0.3824714599999999  0.40098006  1.0000
  O   O28       1.0  0.9814913899999999  0.17982831  0.09901993  1.0000
  O   O29       1.0  0.8201716700000001  0.30166305  0.41919161  1.0000
  O   O30       1.0  0.6175285299999999  0.19833693  0.51850863  1.0000
  O   O31       1.0  0.6798283099999998  0.59901993  0.98149139  1.0000
  O   O32       1.0  0.8824714599999999  0.90098006  0.08080837  1.0000
  O   O33       1.0  0.40098006999999974  0.5808083799999999  0.8824714699999999  1.0000
  O   O34       1.0  0.09901992999999985  0.48149139  0.6798283100000001  1.0000
  O   O35       1.0  0.69833693  0.01850863000000009  0.6175285400000001  1.0000
  O   O36       1.0  0.8016630499999998  0.9191915999999999  0.8201716699999999  1.0000
  O   O37       1.0  0.4814913699999998  0.8824714599999998  0.3016630599999999  1.0000
  O   O38       1.0  0.5808083899999997  0.6798283299999999  0.19833695  1.0000
  O   O39       1.0  0.91919163  0.6175285500000001  0.59901994  1.0000
  O   O40       1.0  0.018508619999999767  0.8201716899999999  0.90098007  1.0000
  O   O41       1.0  0.1798283299999999  0.69833696  0.5808083999999999  1.0000
  O   O42       1.0  0.3824714599999998  0.8016630599999998  0.48149137  1.0000
  O   O43       1.0  0.32017169  0.40098007  0.01850862  1.0000
  O   O44       1.0  0.11752853999999979  0.09901993999999997  0.9191916299999999  1.0000
  O   O45       1.0  0.5990199299999999  0.4191916199999999  0.11752854000000001  1.0000
  O   O46       1.0  0.9009800699999998  0.5185086099999999  0.32017169000000006  1.0000
  O   O47       1.0  0.3016630599999998  0.9814913599999999  0.38247146  1.0000
  O   O48       1.0  0.19833696  0.0808084  0.17982834  1.0000
  Y   Y1        1.0  0.1249999899999999  0.7499999999999999  0.3750000099999999  1.0000
  Y   Y2        1.0  0.3749999999999999  0.25  0.125  1.0000
  Y   Y3        1.0  0.3750000099999998  0.6249999899999997  0.24999999999999992  1.0000
  Y   Y4        1.0  0.12499999999999972  0.8749999999999999  0.75  1.0000
  Y   Y5        1.0  0.7499999999999999  0.6249999999999999  0.37499999999999994  1.0000
  Y   Y6        1.0  0.25  0.8750000099999998  0.1249999999999999  1.0000
  Y   Y7        1.0  0.8749999999999999  0.25  0.62499999  1.0000
  Y   Y8        1.0  0.6249999999999998  0.75  0.8750000000000001  1.0000
  Y   Y9        1.0  0.6249999899999998  0.3750000099999999  0.7499999999999999  1.0000
  Y   Y10       1.0  0.8749999999999999  0.125  0.2500000000000001  1.0000
  Y   Y11       1.0  0.24999999999999986  0.37499999999999994  0.625  1.0000
  Y   Y12       1.0  0.7499999999999998  0.12499998999999995  0.8749999999999999  1.0000
