data_image0
_chemical_formula_structural       Co12O36La16
_chemical_formula_sum              "Co12 O36 La16"
_cell_length_a       5.506346591801946
_cell_length_b       28.687851053124433
_cell_length_c       5.773974455724196
_cell_angle_alpha    89.99616272597684
_cell_angle_beta     90.00216421304117
_cell_angle_gamma    90.02662856165865

_space_group_name_H-M_alt    "P 1"
_space_group_IT_number       1

loop_
  _space_group_symop_operation_xyz
  'x, y, z'

loop_
  _atom_site_type_symbol
  _atom_site_label
  _atom_site_symmetry_multiplicity
  _atom_site_fract_x
  _atom_site_fract_y
  _atom_site_fract_z
  _atom_site_occupancy
  Co  Co1       1.0  0.70258333  0.2500673400000001  0.94090939  1.0000
  Co  Co2       1.0  0.20240080999999988  0.25009706  0.55940047  1.0000
  Co  Co3       1.0  0.29731016  0.7499441600000001  0.05965825  1.0000
  Co  Co4       1.0  0.7973043999999999  0.74994511  0.44042431  1.0000
  Co  Co5       1.0  0.7493105199999999  0.1102842  0.9991461500000001  1.0000
  Co  Co6       1.0  0.24909928  0.38972121  0.5006516  1.0000
  Co  Co7       1.0  0.25061936999999995  0.6103494000000002  0.00062126  1.0000
  Co  Co8       1.0  0.7510221599999999  0.8895431100000002  0.49940203  1.0000
  Co  Co9       1.0  0.25102656  0.8895386400000003  0.00061321  1.0000
  Co  Co10      1.0  0.75061889  0.6103497900000001  0.49953469  1.0000
  Co  Co11      1.0  0.7490979899999998  0.38976710000000003  0.99965173  1.0000
  Co  Co12      1.0  0.24909604999999999  0.11000257000000001  0.5008893  1.0000
  O   O1        1.0  0.8385993  0.2501852800000001  0.6147698999999999  1.0000
  O   O2        1.0  0.3382689  0.25026295  0.88491937  1.0000
  O   O3        1.0  0.16200365  0.74993197  0.3859117  1.0000
  O   O4        1.0  0.66200789  0.7499345500000003  0.11416405999999998  1.0000
  O   O5        1.0  0.7363476699999999  0.03083293  0.93056144  1.0000
  O   O6        1.0  0.23745557  0.46919911000000003  0.56887034  1.0000
  O   O7        1.0  0.26206276  0.53091231  0.06884112  1.0000
  O   O8        1.0  0.7632347999999999  0.9689079900000004  0.43081352  1.0000
  O   O9        1.0  0.2632152899999999  0.9689205500000002  0.06922139  1.0000
  O   O10       1.0  0.7620001799999999  0.5309128900000001  0.43137048  1.0000
  O   O11       1.0  0.7375705699999998  0.46920056000000004  0.9313883  1.0000
  O   O12       1.0  0.23636132  0.03084767  0.56928789  1.0000
  O   O13       1.0  0.51249108  0.10213214  0.26280484  1.0000
  O   O14       1.0  0.0082744  0.3971688800000001  0.24177642  1.0000
  O   O15       1.0  0.49158659  0.60294977  0.7418753599999999  1.0000
  O   O16       1.0  0.99134894  0.8970109100000001  0.7588484999999999  1.0000
  O   O17       1.0  0.49133806999999996  0.8970125000000002  0.7411679800000001  1.0000
  O   O18       1.0  0.99158617  0.6029462000000001  0.7582864399999998  1.0000
  O   O19       1.0  0.5083370599999999  0.3971808000000001  0.25850363  1.0000
  O   O20       1.0  0.012517689999999998  0.10220806  0.23711548999999998  1.0000
  O   O21       1.0  0.48163905  0.11951038000000001  0.7664341600000001  1.0000
  O   O22       1.0  0.9853823799999998  0.38128029  0.7379868399999999  1.0000
  O   O23       1.0  0.51417919  0.6188118600000002  0.23798241999999997  1.0000
  O   O24       1.0  0.01527025  0.8810315300000001  0.26274833  1.0000
  O   O25       1.0  0.51525089  0.8810307100000002  0.23730412999999997  1.0000
  O   O26       1.0  0.014177119999999998  0.6188037200000001  0.26216321  1.0000
  O   O27       1.0  0.48541058  0.38129854000000013  0.76241027  1.0000
  O   O28       1.0  0.98166793  0.11956418000000002  0.73316014  1.0000
  O   O29       1.0  0.7818803099999998  0.18944879  0.07521671  1.0000
  O   O30       1.0  0.28215597  0.31072946  0.42478121999999996  1.0000
  O   O31       1.0  0.21745918999999997  0.68945126  0.9247289399999999  1.0000
  O   O32       1.0  0.71765082  0.81044271  0.57540033  1.0000
  O   O33       1.0  0.21765305999999998  0.8104446000000002  0.9246735899999999  1.0000
  O   O34       1.0  0.71746468  0.6894509000000001  0.57537853  1.0000
  O   O35       1.0  0.7822996799999998  0.3105692299999999  0.07578435  1.0000
  O   O36       1.0  0.28406938  0.1897568900000001  0.42205575000000006  1.0000
  La  La1       1.0  0.7616264099999999  0.049734940000000005  0.51654562  1.0000
  La  La2       1.0  0.25928553  0.4501597500000001  0.98278301  1.0000
  La  La3       1.0  0.24056786  0.54994242  0.48274745  1.0000
  La  La4       1.0  0.74055458  0.9499829600000003  0.01714125  1.0000
  La  La5       1.0  0.24053160999999998  0.9499714900000001  0.48282205999999994  1.0000
  La  La6       1.0  0.7405544899999998  0.549945  0.0174539  1.0000
  La  La7       1.0  0.75932844  0.4501600900000002  0.5174708  1.0000
  La  La8       1.0  0.2617106  0.04974462  0.9835109999999999  1.0000
  La  La9       1.0  0.7317890600000001  0.1727375  0.48128435  1.0000
  La  La10      1.0  0.23373996  0.32763938000000004  0.01910152  1.0000
  La  La11      1.0  0.26583501  0.6724446000000001  0.51906791  1.0000
  La  La12      1.0  0.76637979  0.82741527  0.9810852899999998  1.0000
  La  La13      1.0  0.26638231  0.82740849  0.51897285  1.0000
  La  La14      1.0  0.7658401199999999  0.6724473300000001  0.9810506299999999  1.0000
  La  La15      1.0  0.73370849  0.32763910000000007  0.4813224899999999  1.0000
  La  La16      1.0  0.23245832  0.17273998  0.01803475  1.0000
