data_image0
_chemical_formula_structural       Fe4O10Ti2
_chemical_formula_sum              "Fe4 O10 Ti2"
_cell_length_a       5.069149786130188
_cell_length_b       5.704282747815543
_cell_length_c       7.120287427994615
_cell_angle_alpha    108.91246044529127
_cell_angle_beta     89.99929241907962
_cell_angle_gamma    116.38026127800504

_space_group_name_H-M_alt    "P 1"
_space_group_IT_number       1

loop_
  _space_group_symop_operation_xyz
  'x, y, z'

loop_
  _atom_site_type_symbol
  _atom_site_label
  _atom_site_symmetry_multiplicity
  _atom_site_fract_x
  _atom_site_fract_y
  _atom_site_fract_z
  _atom_site_occupancy
  Fe  Fe1       1.0  0.3591622500000001  0.7302563500000001  0.7732800600000002  1.0000
  Fe  Fe2       1.0  0.6289436500000001  0.26980238000000006  0.72672333  1.0000
  Fe  Fe3       1.0  0.6408341000000002  0.26974155000000005  0.22672168000000004  1.0000
  Fe  Fe4       1.0  0.3710576100000001  0.7301950400000001  0.27327846000000006  1.0000
  O   O1        1.0  0.33893233000000006  0.37266081999999995  0.65249217  1.0000
  O   O2        1.0  0.9662868700000001  0.6273630700000001  0.8475191000000002  1.0000
  O   O3        1.0  0.66106874  0.62733856  0.34751075  1.0000
  O   O4        1.0  0.033711610000000045  0.37263693000000003  0.15248369  1.0000
  O   O5        1.0  0.5841087600000001  0.8349549800000001  0.05063938  1.0000
  O   O6        1.0  0.74918131  0.16506535000000003  0.44937494000000017  1.0000
  O   O7        1.0  0.4158905500000001  0.16504607000000002  0.9493628000000001  1.0000
  O   O8        1.0  0.25082001000000004  0.83493517  0.55062705  1.0000
  O   O9        1.0  0.18734544  3.329999999998318e-06  0.25000222  1.0000
  O   O10       1.0  0.81265564  0.99999922  0.74999921  1.0000
  Ti  Ti1       1.0  5.270000000004438e-06  1.5400000000088778e-06  0.49999420000000006  1.0000
  Ti  Ti2       1.0  0.9999971300000003  2.1199999999603064e-06  0.9999940100000001  1.0000
