data_image0
_chemical_formula_structural       La16O24
_chemical_formula_sum              "La16 O24"
_cell_length_a       9.965952629432229
_cell_length_b       9.965948484634607
_cell_length_c       9.965951789387235
_cell_angle_alpha    109.47119286146241
_cell_angle_beta     109.4712109011348
_cell_angle_gamma    109.47120189538205

_space_group_name_H-M_alt    "P 1"
_space_group_IT_number       1

loop_
  _space_group_symop_operation_xyz
  'x, y, z'

loop_
  _atom_site_type_symbol
  _atom_site_label
  _atom_site_symmetry_multiplicity
  _atom_site_fract_x
  _atom_site_fract_y
  _atom_site_fract_z
  _atom_site_occupancy
  La  La1       1.0  0.9999997199999997  0.5000002399999999  0.99999983  1.0000
  La  La2       1.0  0.50000013  0.5000001099999999  0.5000000099999999  1.0000
  La  La3       1.0  0.9999992599999997  0.9999995800000001  0.49999960999999987  1.0000
  La  La4       1.0  0.49999986999999996  0.9999999199999998  0.9999999599999998  1.0000
  La  La5       1.0  0.47052878  0.22052905  0.75000153  1.0000
  La  La6       1.0  0.029471529999999992  0.27947308  0.25000083  1.0000
  La  La7       1.0  0.72052991  0.2500014699999999  0.47052837  1.0000
  La  La8       1.0  0.7794728599999999  0.75000042  0.0294731899999999  1.0000
  La  La9       1.0  0.24999913999999995  0.52947298  0.7794717799999998  1.0000
  La  La10      1.0  0.7500012399999999  0.9705291999999998  0.7205289299999997  1.0000
  La  La11      1.0  0.5294723799999999  0.7794716399999999  0.24999929  1.0000
  La  La12      1.0  0.9705285199999999  0.72052669  0.7499994799999997  1.0000
  La  La13      1.0  0.2794700899999999  0.74999835  0.5294716699999998  1.0000
  La  La14      1.0  0.2205276  0.24999926999999997  0.97052736  1.0000
  La  La15      1.0  0.7500005900000001  0.47052739999999993  0.22052793  1.0000
  La  La16      1.0  0.2499985  0.02947054  0.2794703  1.0000
  O   O1        1.0  0.037740160000000064  0.76824487  0.027819049999999897  1.0000
  O   O2        1.0  0.7404250299999999  0.5099212499999999  0.4721815699999999  1.0000
  O   O3        1.0  0.7595741399999999  0.7317560599999998  0.2694956999999998  1.0000
  O   O4        1.0  0.4622601499999998  0.9900790099999996  0.2305049999999998  1.0000
  O   O5        1.0  0.009921289999999932  0.97218175  0.7404259299999998  1.0000
  O   O6        1.0  0.2682445999999999  0.5278185699999999  0.0377401999999999  1.0000
  O   O7        1.0  0.4900791099999999  0.7305047499999999  0.4622602899999999  1.0000
  O   O8        1.0  0.2317561899999999  0.7694961000000001  0.7595745999999999  1.0000
  O   O9        1.0  0.26949599  0.25957446  0.2317559999999999  1.0000
  O   O10       1.0  0.2305051599999998  0.9622608899999998  0.4900789999999999  1.0000
  O   O11       1.0  0.027818889999999916  0.53774011  0.2682441599999999  1.0000
  O   O12       1.0  0.47218106999999987  0.24042558  0.009921  1.0000
  O   O13       1.0  0.96226011  0.2317553399999999  0.9721810999999999  1.0000
  O   O14       1.0  0.2595749199999999  0.49007855000000006  0.5278185399999998  1.0000
  O   O15       1.0  0.24042586999999996  0.2682439599999999  0.7305043499999998  1.0000
  O   O16       1.0  0.5377398099999999  0.009921189999999839  0.7694950599999999  1.0000
  O   O17       1.0  0.9900790999999999  0.0278186099999999  0.2595744299999999  1.0000
  O   O18       1.0  0.7317552599999999  0.4721810699999999  0.9622595299999999  1.0000
  O   O19       1.0  0.5099207399999999  0.2694950699999999  0.5377395199999999  1.0000
  O   O20       1.0  0.76824375  0.2305039  0.24042552  1.0000
  O   O21       1.0  0.7305039499999999  0.7404255199999997  0.7682438899999999  1.0000
  O   O22       1.0  0.76949495  0.03773954999999998  0.5099211  1.0000
  O   O23       1.0  0.97218112  0.46225967999999995  0.7317556599999999  1.0000
  O   O24       1.0  0.5278185399999998  0.75957421  0.9900787699999998  1.0000
