data_image0
_chemical_formula_structural       Nb4Co8O18
_chemical_formula_sum              "Nb4 Co8 O18"
_cell_length_a       5.2304949860010765
_cell_length_b       5.230497319171368
_cell_length_c       14.334071064006158
_cell_angle_alpha    89.99989081323476
_cell_angle_beta     90.00005816308826
_cell_angle_gamma    119.99995460209917

_space_group_name_H-M_alt    "P 1"
_space_group_IT_number       1

loop_
  _space_group_symop_operation_xyz
  'x, y, z'

loop_
  _atom_site_type_symbol
  _atom_site_label
  _atom_site_symmetry_multiplicity
  _atom_site_fract_x
  _atom_site_fract_y
  _atom_site_fract_z
  _atom_site_occupancy
  Nb  Nb1       1.0  1.5999999999999995e-07  5.199999999999998e-07  0.14181272000000003  1.0000
  Nb  Nb2       1.0  7.900000000000001e-07  6.100000000000001e-07  0.64181266  1.0000
  Nb  Nb3       1.0  2.4000000000000014e-07  1.0400000000000002e-06  0.8581881099999998  1.0000
  Nb  Nb4       1.0  2.3999999999999987e-07  2.799999999999998e-07  0.35818826  1.0000
  Co  Co1       1.0  0.6666666099999999  0.33333336  0.48528672  1.0000
  Co  Co2       1.0  0.66666641  0.33333315  0.9852867  1.0000
  Co  Co3       1.0  0.33333338  0.666667  0.51471415  1.0000
  Co  Co4       1.0  0.33333329000000006  0.66666647  0.01471408  1.0000
  Co  Co5       1.0  0.66666657  0.33333351  0.19318364  1.0000
  Co  Co6       1.0  0.6666672099999998  0.3333344999999999  0.6931834999999998  1.0000
  Co  Co7       1.0  0.3333341300000001  0.66666742  0.80681729  1.0000
  Co  Co8       1.0  0.33333337  0.66666672  0.30681735  1.0000
  O   O1        1.0  0.2912686199999999  4.9999999999999925e-08  0.25000058  1.0000
  O   O2        1.0  0.70873131  0.7087313099999999  0.25000051  1.0000
  O   O3        1.0  0.9999999700000001  0.29126886  0.25000033  1.0000
  O   O4        1.0  0.29126920999999983  0.2912696699999999  0.75000044  1.0000
  O   O5        1.0  9.400000000117747e-07  0.7087324699999998  0.75000048  1.0000
  O   O6        1.0  0.7087323099999999  1.3199999999999996e-06  0.75000045  1.0000
  O   O7        1.0  0.02252634000000001  0.6765775399999999  0.41660304  1.0000
  O   O8        1.0  0.6540504100000001  0.9774735400000001  0.41660288  1.0000
  O   O9        1.0  0.32342224  0.3459491200000001  0.41660309  1.0000
  O   O10       1.0  0.02252655  0.34594876  0.91660332  1.0000
  O   O11       1.0  0.323423  0.9774735900000001  0.91660294  1.0000
  O   O12       1.0  0.6540511099999999  0.67657754  0.91660293  1.0000
  O   O13       1.0  0.9774735399999999  0.3234231  0.58339783  1.0000
  O   O14       1.0  0.34594922999999983  0.02252696  0.58339784  1.0000
  O   O15       1.0  0.67657779  0.65405162  0.58339797  1.0000
  O   O16       1.0  0.9774735299999999  0.6540506999999999  0.08339790000000001  1.0000
  O   O17       1.0  0.6765771999999999  0.0225261  0.08339807  1.0000
  O   O18       1.0  0.34594901999999994  0.3234221  0.08339803  1.0000
