data_image0
_chemical_formula_structural       Ba8O16Fe4
_chemical_formula_sum              "Ba8 O16 Fe4"
_cell_length_a       6.248676786919564
_cell_length_b       7.746113998000175
_cell_length_c       10.257681891465145
_cell_angle_alpha    89.99997282643145
_cell_angle_beta     94.48695840888071
_cell_angle_gamma    89.99996870487658

_space_group_name_H-M_alt    "P 1"
_space_group_IT_number       1

loop_
  _space_group_symop_operation_xyz
  'x, y, z'

loop_
  _atom_site_type_symbol
  _atom_site_label
  _atom_site_symmetry_multiplicity
  _atom_site_fract_x
  _atom_site_fract_y
  _atom_site_fract_z
  _atom_site_occupancy
  Ba  Ba1       1.0  0.7433064099999999  0.34556219  0.4233948900000001  1.0000
  Ba  Ba2       1.0  0.24330629  0.15443788  0.9233949199999999  1.0000
  Ba  Ba3       1.0  0.25669363  0.6544378200000002  0.57660564  1.0000
  Ba  Ba4       1.0  0.7566939899999999  0.8455620900000003  0.07660557  1.0000
  Ba  Ba5       1.0  0.28120001  0.00703863  0.30352633  1.0000
  Ba  Ba6       1.0  0.7812  0.4929613400000001  0.8035262799999999  1.0000
  Ba  Ba7       1.0  0.7188001999999999  0.9929614000000001  0.69647417  1.0000
  Ba  Ba8       1.0  0.21880016  0.50703873  0.19647441999999998  1.0000
  O   O1        1.0  0.7957871999999999  0.5041827100000001  0.09546997  1.0000
  O   O2        1.0  0.29578707  0.9958174  0.59546961  1.0000
  O   O3        1.0  0.20421305999999997  0.4958172300000001  0.9045305100000001  1.0000
  O   O4        1.0  0.7042130299999998  0.00418269  0.40453091  1.0000
  O   O5        1.0  0.0005777000000000016  0.7484266100000001  0.33496349  1.0000
  O   O6        1.0  0.50057849  0.7515734300000003  0.83496347  1.0000
  O   O7        1.0  0.9994223499999999  0.25157344  0.66503692  1.0000
  O   O8        1.0  0.49942183  0.24842656  0.16503707  1.0000
  O   O9        1.0  0.4997068599999999  0.6835737000000001  0.36866951  1.0000
  O   O10       1.0  0.9997069499999999  0.8164268600000003  0.86866934  1.0000
  O   O11       1.0  0.50029314  0.31642641  0.6313310399999998  1.0000
  O   O12       1.0  0.0002933300000000001  0.18357312  0.13133107  1.0000
  O   O13       1.0  0.8217691699999999  0.6642526000000001  0.5703337  1.0000
  O   O14       1.0  0.32176953999999997  0.8357472700000002  0.07033387  1.0000
  O   O15       1.0  0.17823094  0.33574749  0.42966685  1.0000
  O   O16       1.0  0.6782306999999999  0.1642526900000001  0.9296666199999999  1.0000
  Fe  Fe1       1.0  0.7578811  0.7777084300000002  0.4162736699999999  1.0000
  Fe  Fe2       1.0  0.25788135  0.7222915300000001  0.9162736999999999  1.0000
  Fe  Fe3       1.0  0.24211898999999998  0.22229161  0.58372686  1.0000
  Fe  Fe4       1.0  0.7421189600000001  0.27770844  0.08372678  1.0000
