data_image0
_chemical_formula_structural       In4Ni2O8
_chemical_formula_sum              "In4 Ni2 O8"
_cell_length_a       6.325692768259054
_cell_length_b       6.32572839434364
_cell_length_c       6.427004574065778
_cell_angle_alpha    59.468475940301886
_cell_angle_beta     59.46900587503305
_cell_angle_gamma    59.84768598778049

_space_group_name_H-M_alt    "P 1"
_space_group_IT_number       1

loop_
  _space_group_symop_operation_xyz
  'x, y, z'

loop_
  _atom_site_type_symbol
  _atom_site_label
  _atom_site_symmetry_multiplicity
  _atom_site_fract_x
  _atom_site_fract_y
  _atom_site_fract_z
  _atom_site_occupancy
  In  In1       1.0  0.9963936999999999  0.9963937999999999  0.00354808  1.0000
  In  In2       1.0  0.2536087699999999  0.25360871999999995  0.24630087000000012  1.0000
  In  In3       1.0  0.6250138199999998  0.6250137199999998  0.6250555800000003  1.0000
  In  In4       1.0  0.6249869499999999  0.6249867699999998  0.1250855600000002  1.0000
  Ni  Ni1       1.0  0.6250031999999999  0.12499941999999982  0.6249721100000001  1.0000
  Ni  Ni2       1.0  0.12499948999999984  0.6250032599999997  0.62497202  1.0000
  O   O1        1.0  0.8729082899999996  0.40362812999999964  0.8617846000000002  1.0000
  O   O2        1.0  0.4036280999999998  0.8729081399999997  0.8617804500000003  1.0000
  O   O3        1.0  0.8463768799999998  0.37708719  0.3883186699999999  1.0000
  O   O4        1.0  0.37708739999999985  0.8463768399999999  0.3883143300000001  1.0000
  O   O5        1.0  0.8696186299999994  0.8696249599999997  0.8533924200000004  1.0000
  O   O6        1.0  0.8696602099999995  0.8696542099999995  0.4072817300000001  1.0000
  O   O7        1.0  0.3803722199999996  0.3803784799999999  0.8426049700000003  1.0000
  O   O8        1.0  0.38034263999999984  0.38033665999999977  0.3965889100000001  1.0000
