data_image0
_chemical_formula_structural       Nb4O10
_chemical_formula_sum              "Nb4 O10"
_cell_length_a       7.006495144563551
_cell_length_b       4.997259581551334
_cell_length_c       5.671453152854378
_cell_angle_alpha    90.00021384013968
_cell_angle_beta     102.7210154628111
_cell_angle_gamma    69.10167979024214

_space_group_name_H-M_alt    "P 1"
_space_group_IT_number       1

loop_
  _space_group_symop_operation_xyz
  'x, y, z'

loop_
  _atom_site_type_symbol
  _atom_site_label
  _atom_site_symmetry_multiplicity
  _atom_site_fract_x
  _atom_site_fract_y
  _atom_site_fract_z
  _atom_site_occupancy
  Nb  Nb1       1.0  0.71760095  0.39595098000000006  0.7354625400000001  1.0000
  Nb  Nb2       1.0  0.28239905  0.60404902  0.2645374599999999  1.0000
  Nb  Nb3       1.0  0.71746363  0.8864559799999999  0.23548817  1.0000
  Nb  Nb4       1.0  0.28253637  0.11354401999999998  0.7645118300000002  1.0000
  O   O1        1.0  3.347999999999218e-05  0.3916481199999999  0.7500186500000001  1.0000
  O   O2        1.0  0.99996652  0.6083518800000001  0.24998133000000003  1.0000
  O   O3        1.0  0.7775469700000001  0.1637662200000001  0.01953687  1.0000
  O   O4        1.0  0.22245302999999989  0.8362337899999998  0.9804631300000001  1.0000
  O   O5        1.0  0.7775873600000002  0.058580080000000014  0.51957466  1.0000
  O   O6        1.0  0.22241265000000002  0.94141991  0.48042535000000003  1.0000
  O   O7        1.0  0.59040594  0.7748199600000001  0.8737530400000002  1.0000
  O   O8        1.0  0.40959406  0.22518004  0.12624696  1.0000
  O   O9        1.0  0.40959032000000006  0.3652560599999999  0.6262143100000002  1.0000
  O   O10       1.0  0.59040969  0.6347439299999998  0.37378569000000017  1.0000
