data_image0
_chemical_formula_structural       Al2La2O6
_chemical_formula_sum              "Al2 La2 O6"
_cell_length_a       5.412667922257474
_cell_length_b       5.412667854959332
_cell_length_c       5.41266790931402
_cell_angle_alpha    60.14895804515569
_cell_angle_beta     60.14895560506896
_cell_angle_gamma    60.148955592816364

_space_group_name_H-M_alt    "P 1"
_space_group_IT_number       1

loop_
  _space_group_symop_operation_xyz
  'x, y, z'

loop_
  _atom_site_type_symbol
  _atom_site_label
  _atom_site_symmetry_multiplicity
  _atom_site_fract_x
  _atom_site_fract_y
  _atom_site_fract_z
  _atom_site_occupancy
  Al  Al1       1.0  0.9999999999999998  1.0  -1e-16  1.0000
  Al  Al2       1.0  0.4999999999999997  0.5  0.4999999999999999  1.0000
  La  La1       1.0  0.2500000099999998  0.24999999000000014  0.25000001  1.0000
  La  La2       1.0  0.7499999999999997  0.7500000200000001  0.7499999999999999  1.0000
  O   O1        1.0  0.7781719699999998  0.24999983000000003  0.72182803  1.0000
  O   O2        1.0  0.25000000999999966  0.72182793  0.7781720799999999  1.0000
  O   O3        1.0  0.7218280499999997  0.7781719600000003  0.2500001399999999  1.0000
  O   O4        1.0  0.2781719699999998  0.22182804000000012  0.7499998699999999  1.0000
  O   O5        1.0  0.7499999799999997  0.27817212  0.22182788  1.0000
  O   O6        1.0  0.22182800999999963  0.7500001200000003  0.2781719799999999  1.0000
