data_image0
_chemical_formula_structural       Sr10Ce6O48Mn16
_chemical_formula_sum              "Sr10 Ce6 O48 Mn16"
_cell_length_a       10.960935317662553
_cell_length_b       10.997816963364288
_cell_length_c       10.963734304082458
_cell_angle_alpha    91.49703477050478
_cell_angle_beta     119.31132796436836
_cell_angle_gamma    118.81329020449625

_space_group_name_H-M_alt    "P 1"
_space_group_IT_number       1

loop_
  _space_group_symop_operation_xyz
  'x, y, z'

loop_
  _atom_site_type_symbol
  _atom_site_label
  _atom_site_symmetry_multiplicity
  _atom_site_fract_x
  _atom_site_fract_y
  _atom_site_fract_z
  _atom_site_occupancy
  Sr  Sr1       1.0  0.7552375600000002  0.8779062100000004  0.8802339900000001  1.0000
  Sr  Sr2       1.0  0.2549493900000001  0.8693278600000002  0.38653744  1.0000
  Sr  Sr3       1.0  0.2378225700000001  0.6242317300000001  0.11854552  1.0000
  Sr  Sr4       1.0  0.2340861700000001  0.3743337800000001  0.36528972  1.0000
  Sr  Sr5       1.0  0.7386842300000002  0.11825851000000001  0.12521991  1.0000
  Sr  Sr6       1.0  0.2511682900000002  0.8805089600000002  0.8656459800000001  1.0000
  Sr  Sr7       1.0  0.2381861200000001  0.12279969000000009  0.6079452  1.0000
  Sr  Sr8       1.0  0.26139186000000014  0.6273427300000001  0.62966235  1.0000
  Sr  Sr9       1.0  0.75969376  0.3720836200000001  0.38720579  1.0000
  Sr  Sr10      1.0  0.7422538500000002  0.8762931900000005  0.3693976500000001  1.0000
  Ce  Ce1       1.0  0.7385151500000003  0.6252150300000002  0.6088801200000001  1.0000
  Ce  Ce2       1.0  0.2596367  0.11815611000000001  0.14447674  1.0000
  Ce  Ce3       1.0  0.75869402  0.11724003  0.62829844  1.0000
  Ce  Ce4       1.0  0.7446011400000001  0.37411049000000024  0.8659677700000001  1.0000
  Ce  Ce5       1.0  0.2659453000000001  0.3804352000000001  0.88027471  1.0000
  Ce  Ce6       1.0  0.7614973600000001  0.6279229600000001  0.14324083  1.0000
  O   O1        1.0  0.04231629000000007  0.9309654500000001  0.90719943  1.0000
  O   O2        1.0  0.01947393  0.10415781  0.12222286  1.0000
  O   O3        1.0  0.9537323100000002  0.8327826600000002  0.11738878  1.0000
  O   O4        1.0  0.03461142000000023  0.1704721300000001  0.8640267400000001  1.0000
  O   O5        1.0  0.7754763600000001  0.8994081000000002  0.6567322200000001  1.0000
  O   O6        1.0  0.75935213  0.1105081900000001  0.8575588600000001  1.0000
  O   O7        1.0  0.2431103500000001  0.88114805  0.15217191  1.0000
  O   O8        1.0  0.2300940700000001  0.0852579800000001  0.3577263600000001  1.0000
  O   O9        1.0  0.7576952000000001  0.6208792900000002  0.8390013900000001  1.0000
  O   O10       1.0  0.7461012900000003  0.8864925000000002  0.13386557  1.0000
  O   O11       1.0  0.25838365000000013  0.13711006000000012  0.8457974600000001  1.0000
  O   O12       1.0  0.24318388000000002  0.3957895100000001  0.12795186  1.0000
  O   O13       1.0  0.5355377800000001  0.6520536000000002  0.88005329  1.0000
  O   O14       1.0  0.44244638  0.3327086500000001  0.11412403999999998  1.0000
  O   O15       1.0  0.9757847  0.84746319  0.6332318500000002  1.0000
  O   O16       1.0  0.9538580699999999  0.3409617700000001  0.11491118999999998  1.0000
  O   O17       1.0  0.03974761000000021  0.6616978900000002  0.87793678  1.0000
  O   O18       1.0  0.019744650000000107  0.1422390100000001  0.3704302400000001  1.0000
  O   O19       1.0  0.48572224000000014  0.8584662100000002  0.62634719  1.0000
  O   O20       1.0  0.51162239  0.145185  0.3688651700000001  1.0000
  O   O21       1.0  0.49644790000000016  0.6054176900000001  0.6062536500000001  1.0000
  O   O22       1.0  0.49719839000000043  0.8964137100000004  0.8760599500000001  1.0000
  O   O23       1.0  0.9499933900000002  0.5780406  0.09491111  1.0000
  O   O24       1.0  0.9705650600000001  0.8651373100000002  0.37201742  1.0000
  O   O25       1.0  0.9858565800000001  0.10849625000000011  0.60458289  1.0000
  O   O26       1.0  0.9702759800000001  0.3909376600000001  0.8680175100000002  1.0000
  O   O27       1.0  0.4718731600000002  0.3735230400000001  0.3780612700000001  1.0000
  O   O28       1.0  0.46441963000000014  0.09157909  0.10881205  1.0000
  O   O29       1.0  0.9741864  0.34590803000000003  0.6331583600000001  1.0000
  O   O30       1.0  0.003908330000000059  0.64090154  0.360666  1.0000
  O   O31       1.0  0.5170128800000002  0.8972704300000001  0.4002265700000001  1.0000
  O   O32       1.0  0.5483785700000001  0.1394433600000001  0.6326052500000001  1.0000
  O   O33       1.0  0.5281492900000001  0.6459467300000002  0.3798004  1.0000
  O   O34       1.0  0.54661503  0.16336947000000002  0.87907278  1.0000
  O   O35       1.0  0.4698717800000001  0.8469331500000004  0.12577142  1.0000
  O   O36       1.0  0.49327741000000014  0.3534418500000001  0.6426855300000001  1.0000
  O   O37       1.0  0.5470128300000002  0.4245048800000002  0.9091985100000002  1.0000
  O   O38       1.0  0.5102260500000001  0.5945528200000002  0.1169808  1.0000
  O   O39       1.0  0.010195550000000107  0.39014128000000003  0.3943146900000001  1.0000
  O   O40       1.0  0.026642560000000187  0.6251614900000002  0.6235445200000002  1.0000
  O   O41       1.0  0.7692117900000002  0.42411637000000024  0.6363983800000002  1.0000
  O   O42       1.0  0.7281777400000002  0.10942682000000001  0.3558209000000001  1.0000
  O   O43       1.0  0.2743238700000003  0.9139877900000003  0.6335894500000001  1.0000
  O   O44       1.0  0.2233722200000002  0.6065251000000002  0.3433726  1.0000
  O   O45       1.0  0.25309963000000013  0.5950370400000001  0.8700743600000002  1.0000
  O   O46       1.0  0.27485911  0.3906466500000001  0.6651390800000001  1.0000
  O   O47       1.0  0.7386389800000001  0.3799845900000001  0.15067114  1.0000
  O   O48       1.0  0.72556992  0.58466913  0.36358628  1.0000
  Mn  Mn1       1.0  0.011499970000000045  0.010177480000000023  0.7537063100000001  1.0000
  Mn  Mn2       1.0  0.9941397500000002  0.9928229400000004  0.24724538000000001  1.0000
  Mn  Mn3       1.0  0.50734309  0.004485900000000013  0.7516455400000001  1.0000
  Mn  Mn4       1.0  0.4930171400000001  0.9937566600000002  0.24786166999999998  1.0000
  Mn  Mn5       1.0  0.5100210300000001  0.5071353000000001  0.7548485300000001  1.0000
  Mn  Mn6       1.0  0.48959293000000015  0.49078816000000014  0.24766958000000003  1.0000
  Mn  Mn7       1.0  0.005013030000000088  0.5089664900000002  0.7513000600000002  1.0000
  Mn  Mn8       1.0  0.98880305  0.4905441700000001  0.24611351999999997  1.0000
  Mn  Mn9       1.0  0.0013339999999998971  0.7515010700000001  0.9976701799999999  1.0000
  Mn  Mn10      1.0  0.0005255900000000962  0.2513318000000001  0.00070184  1.0000
  Mn  Mn11      1.0  0.4946153500000001  0.7468228100000002  0.4966526100000001  1.0000
  Mn  Mn12      1.0  0.4995606  0.24952646000000006  0.5018215200000001  1.0000
  Mn  Mn13      1.0  0.5007966600000001  0.7518200900000002  0.00016019  1.0000
  Mn  Mn14      1.0  0.4998168599999999  0.24752900000000003  0.00099242  1.0000
  Mn  Mn15      1.0  0.005547130000000159  0.7508309900000001  0.5047366700000001  1.0000
  Mn  Mn16      1.0  0.99865566  0.24853368000000012  0.4971157800000002  1.0000
