data_image0
_chemical_formula_structural       CaO
_chemical_formula_sum              "Ca1 O1"
_cell_length_a       3.4161762774309765
_cell_length_b       3.416175957818775
_cell_length_c       3.416175458601293
_cell_angle_alpha    59.99999667230671
_cell_angle_beta     59.99998763413376
_cell_angle_gamma    59.999971735165516

_space_group_name_H-M_alt    "P 1"
_space_group_IT_number       1

loop_
  _space_group_symop_operation_xyz
  'x, y, z'

loop_
  _atom_site_type_symbol
  _atom_site_label
  _atom_site_symmetry_multiplicity
  _atom_site_fract_x
  _atom_site_fract_y
  _atom_site_fract_z
  _atom_site_occupancy
  Ca  Ca1       1.0  0.0  1.0  1.0000000000000002  1.0000
  O   O1        1.0  0.5000000000000002  0.49999999999999994  0.49999999999999994  1.0000
