data_image0
_chemical_formula_structural       Ti2O4
_chemical_formula_sum              "Ti2 O4"
_cell_length_a       3.829125340715826
_cell_length_b       3.8291254806896946
_cell_length_c       5.575626483456154
_cell_angle_alpha    69.91918592814356
_cell_angle_beta     69.91917090622492
_cell_angle_gamma    90.00028782545886

_space_group_name_H-M_alt    "P 1"
_space_group_IT_number       1

loop_
  _space_group_symop_operation_xyz
  'x, y, z'

loop_
  _atom_site_type_symbol
  _atom_site_label
  _atom_site_symmetry_multiplicity
  _atom_site_fract_x
  _atom_site_fract_y
  _atom_site_fract_z
  _atom_site_occupancy
  Ti  Ti1       1.0  0.8749714800000002  0.6250287500000004  0.24999998  1.0000
  Ti  Ti2       1.0  0.12502852000000006  0.3749712500000001  0.75000002  1.0000
  O   O1        1.0  0.9185365900000001  0.16856292  0.16288914  1.0000
  O   O2        1.0  0.6685628200000001  0.41853624000000017  0.6628891400000001  1.0000
  O   O3        1.0  0.0814634  0.8314370800000004  0.8371108700000001  1.0000
  O   O4        1.0  0.33143718000000005  0.58146377  0.33711084  1.0000
