data_image0
_chemical_formula_structural       Mg4Ti2O8
_chemical_formula_sum              "Mg4 Ti2 O8"
_cell_length_a       6.0403512206497325
_cell_length_b       6.040351264757001
_cell_length_c       6.000590755728958
_cell_angle_alpha    60.21743672448825
_cell_angle_beta     60.2174370268265
_cell_angle_gamma    60.04366463339379

_space_group_name_H-M_alt    "P 1"
_space_group_IT_number       1

loop_
  _space_group_symop_operation_xyz
  'x, y, z'

loop_
  _atom_site_type_symbol
  _atom_site_label
  _atom_site_symmetry_multiplicity
  _atom_site_fract_x
  _atom_site_fract_y
  _atom_site_fract_z
  _atom_site_occupancy
  Mg  Mg1       1.0  0.011526949999999984  0.011526950000000017  0.98847266  1.0000
  Mg  Mg2       1.0  0.23847309000000008  0.2384731  0.26152738  1.0000
  Mg  Mg3       1.0  0.6250000200000001  0.6250000199999998  0.12500002  1.0000
  Mg  Mg4       1.0  0.6250000199999999  0.6250000200000001  0.6250000200000001  1.0000
  Ti  Ti1       1.0  0.62500001  0.12500003000000015  0.6250000199999998  1.0000
  Ti  Ti2       1.0  0.12500002999999993  0.6250000100000002  0.6250000199999998  1.0000
  O   O1        1.0  0.8730977000000002  0.87309768  0.8522603399999998  1.0000
  O   O2        1.0  0.8730985700000002  0.8730985899999999  0.40154282  1.0000
  O   O3        1.0  0.37690147000000024  0.3769014500000001  0.84845722  1.0000
  O   O4        1.0  0.37690234  0.3769023699999999  0.3977396999999999  1.0000
  O   O5        1.0  0.8827409100000003  0.41247713999999996  0.8523907999999998  1.0000
  O   O6        1.0  0.41247714000000013  0.8827409099999999  0.8523908  1.0000
  O   O7        1.0  0.8375229000000002  0.36725914  0.39760924  1.0000
  O   O8        1.0  0.3672591300000001  0.8375229000000001  0.3976092399999998  1.0000
