data_image0
_chemical_formula_structural       Ni2Ba6O8
_chemical_formula_sum              "Ni2 Ba6 O8"
_cell_length_a       7.258750463780921
_cell_length_b       7.258750123644493
_cell_length_c       7.258756887155385
_cell_angle_alpha    66.16969316734544
_cell_angle_beta     66.16969007757226
_cell_angle_gamma    66.16973106585093

_space_group_name_H-M_alt    "P 1"
_space_group_IT_number       1

loop_
  _space_group_symop_operation_xyz
  'x, y, z'

loop_
  _atom_site_type_symbol
  _atom_site_label
  _atom_site_symmetry_multiplicity
  _atom_site_fract_x
  _atom_site_fract_y
  _atom_site_fract_z
  _atom_site_occupancy
  Ni  Ni1       1.0  0.2500011500000001  0.2500017299999999  0.25000196  1.0000
  Ni  Ni2       1.0  0.7499985600000001  0.7499991899999999  0.7499995200000001  1.0000
  Ba  Ba1       1.0  0.8354254  0.24999962999999994  0.6645741799999999  1.0000
  Ba  Ba2       1.0  0.24999909999999997  0.6645739899999998  0.8354262100000001  1.0000
  Ba  Ba3       1.0  0.6645731699999998  0.8354259999999999  0.24999996  1.0000
  Ba  Ba4       1.0  0.16457336000000009  0.7500004599999999  0.33542638  1.0000
  Ba  Ba5       1.0  0.7499996900000001  0.3354260499999999  0.16457436000000003  1.0000
  Ba  Ba6       1.0  0.3354255600000002  0.16457397999999995  0.75000085  1.0000
  O   O1        1.0  0.49999932000000014  0.5000000399999998  0.50000032  1.0000
  O   O2        1.0  0.9999993600000002  2.0000000000000004e-08  3.1e-07  1.0000
  O   O3        1.0  0.48195173000000013  0.249999  0.01804624  1.0000
  O   O4        1.0  0.24999884000000006  0.01804683000000001  0.4819533499999999  1.0000
  O   O5        1.0  0.018045799999999976  0.4819525899999999  0.24999952000000003  1.0000
  O   O6        1.0  0.5180467799999999  0.7500005200000001  0.98195405  1.0000
  O   O7        1.0  0.7499992299999999  0.9819529099999996  0.51804694  1.0000
  O   O8        1.0  0.9819526500000002  0.5180470999999999  0.7500006  1.0000
