data_image0
_chemical_formula_structural       O16Ti8
_chemical_formula_sum              "O16 Ti8"
_cell_length_a       9.299236290000074
_cell_length_b       5.520017232000001
_cell_length_c       5.224753457000043
_cell_angle_alpha    89.99999793003873
_cell_angle_beta     90.00001450266137
_cell_angle_gamma    89.99999914053356

_space_group_name_H-M_alt    "P 1"
_space_group_IT_number       1

loop_
  _space_group_symop_operation_xyz
  'x, y, z'

loop_
  _atom_site_type_symbol
  _atom_site_label
  _atom_site_symmetry_multiplicity
  _atom_site_fract_x
  _atom_site_fract_y
  _atom_site_fract_z
  _atom_site_occupancy
  O   O1        1.0  0.5108880599999999  0.1489112899999999  0.3183002300000001  1.0000
  O   O2        1.0  0.01088655  0.3510893099999999  0.6817000299999999  1.0000
  O   O3        1.0  0.48911345999999994  0.6489106699999998  0.18170017  1.0000
  O   O4        1.0  0.98911197  0.8510886399999998  0.81830018  1.0000
  O   O5        1.0  0.48911345999999994  0.8510893099999995  0.6817001799999999  1.0000
  O   O6        1.0  0.9891119699999998  0.6489113699999998  0.3183001699999999  1.0000
  O   O7        1.0  0.5108880499999999  0.3510886999999999  0.8183002200000001  1.0000
  O   O8        1.0  0.01088655  0.14891072  0.18170003  1.0000
  O   O9        1.0  0.7298733799999999  0.10951025999999998  0.96540425  1.0000
  O   O10       1.0  0.22987329  0.3904902599999999  0.0345959  1.0000
  O   O11       1.0  0.2701268299999999  0.6095098399999997  0.5345960199999998  1.0000
  O   O12       1.0  0.7701265599999999  0.8904898399999999  0.4654043  1.0000
  O   O13       1.0  0.2701268399999999  0.8904901599999998  0.03459603  1.0000
  O   O14       1.0  0.77012656  0.6095101699999999  0.96540431  1.0000
  O   O15       1.0  0.7298733799999999  0.3904897399999999  0.4654042500000001  1.0000
  O   O16       1.0  0.22987329  0.10950974  0.53459591  1.0000
  Ti  Ti1       1.0  0.6289170499999999  0.09994423  0.63796175  1.0000
  Ti  Ti2       1.0  0.12891918  0.4000538899999999  0.36203778  1.0000
  Ti  Ti3       1.0  0.37108059  0.59994615  0.86203763  1.0000
  Ti  Ti4       1.0  0.87108308  0.9000558499999998  0.13796170000000002  1.0000
  Ti  Ti5       1.0  0.3710806099999999  0.9000537899999999  0.3620376599999999  1.0000
  Ti  Ti6       1.0  0.8710830699999997  0.5999441499999999  0.6379617199999998  1.0000
  Ti  Ti7       1.0  0.62891706  0.40005579  0.13796178  1.0000
  Ti  Ti8       1.0  0.12891917  0.09994615000000001  0.8620377999999999  1.0000
