data_image0
_chemical_formula_structural       Ca4O12Ti4
_chemical_formula_sum              "Ca4 O12 Ti4"
_cell_length_a       5.523982965000109
_cell_length_b       7.709949637000018
_cell_length_c       5.412959667000097
_cell_angle_alpha    90.00000141404873
_cell_angle_beta     90.00002162603813
_cell_angle_gamma    90.0000074616128

_space_group_name_H-M_alt    "P 1"
_space_group_IT_number       1

loop_
  _space_group_symop_operation_xyz
  'x, y, z'

loop_
  _atom_site_type_symbol
  _atom_site_label
  _atom_site_symmetry_multiplicity
  _atom_site_fract_x
  _atom_site_fract_y
  _atom_site_fract_z
  _atom_site_occupancy
  Ca  Ca1       1.0  0.04458142  0.25000005  0.00963047  1.0000
  Ca  Ca2       1.0  0.54458108  0.24999995  0.49036962999999995  1.0000
  Ca  Ca3       1.0  0.9554188699999999  0.75000005  0.9903697699999999  1.0000
  Ca  Ca4       1.0  0.45541846999999985  0.74999999  0.50963022  1.0000
  O   O1        1.0  0.47825358999999984  0.24999992999999998  0.9188923999999999  1.0000
  O   O2        1.0  0.9782534199999998  0.24999994  0.5811076  1.0000
  O   O3        1.0  0.5217466799999999  0.74999995  0.08110751  1.0000
  O   O4        1.0  0.02174637  0.7499999800000001  0.41889243000000004  1.0000
  O   O5        1.0  0.29118493  0.04255936  0.29206870000000007  1.0000
  O   O6        1.0  0.7911849299999999  0.45744047  0.20793119000000002  1.0000
  O   O7        1.0  0.7088151299999997  0.5425603100000003  0.70793121  1.0000
  O   O8        1.0  0.20881516999999997  0.9574395600000001  0.7920686699999999  1.0000
  O   O9        1.0  0.7088151799999998  0.9574395800000001  0.70793132  1.0000
  O   O10       1.0  0.20881511999999997  0.5425602800000001  0.79206857  1.0000
  O   O11       1.0  0.2911848599999999  0.4574406100000001  0.29206852  1.0000
  O   O12       1.0  0.7911849999999999  0.0425595  0.20793129000000002  1.0000
  Ti  Ti1       1.0  0.9999999299999998  2.8e-07  0.50000001  1.0000
  Ti  Ti2       1.0  0.50000008  0.49999993  3.2000000000000006e-07  1.0000
  Ti  Ti3       1.0  0.9999997199999999  0.5000001700000001  0.50000032  1.0000
  Ti  Ti4       1.0  0.5000000399999999  1e-07  0.99999985  1.0000
