data_image0
_chemical_formula_structural       Al4Ca4O10
_chemical_formula_sum              "Al4 Ca4 O10"
_cell_length_a       5.281148871058867
_cell_length_b       5.460785977101498
_cell_length_c       8.174040011295782
_cell_angle_alpha    109.51421672873583
_cell_angle_beta     108.84763227788984
_cell_angle_gamma    89.9996623391237

_space_group_name_H-M_alt    "P 1"
_space_group_IT_number       1

loop_
  _space_group_symop_operation_xyz
  'x, y, z'

loop_
  _atom_site_type_symbol
  _atom_site_label
  _atom_site_symmetry_multiplicity
  _atom_site_fract_x
  _atom_site_fract_y
  _atom_site_fract_z
  _atom_site_occupancy
  Al  Al1       1.0  0.5031055699999999  0.50000112  9.200000000000001e-07  1.0000
  Al  Al2       1.0  0.0031042099999999996  1.0700000000000001e-06  2.3400000000000005e-06  1.0000
  Al  Al3       1.0  0.7041175499999999  0.6753324300000001  0.49999725999999994  1.0000
  Al  Al4       1.0  0.20411421000000002  0.32466137  0.49999822999999993  1.0000
  Ca  Ca1       1.0  0.3886383600000001  0.9183604400000001  0.7849342400000002  1.0000
  Ca  Ca2       1.0  0.6037223599999999  0.0816397  0.21506593  1.0000
  Ca  Ca3       1.0  0.10372308  0.6334261200000002  0.21506745000000002  1.0000
  Ca  Ca4       1.0  0.8886542599999999  0.3665776  0.78493419  1.0000
  O   O1        1.0  0.66012054  0.6994965800000001  0.28282053000000007  1.0000
  O   O2        1.0  0.3773006800000001  0.3005086  0.7171807099999999  1.0000
  O   O3        1.0  0.8773262599999999  0.9166761699999999  0.7171735099999998  1.0000
  O   O4        1.0  0.16011308000000002  0.08331732000000003  0.28282223999999995  1.0000
  O   O5        1.0  0.8676668499999998  0.38648935  0.49999466000000004  1.0000
  O   O6        1.0  0.36767344  0.61349682  0.5000003  1.0000
  O   O7        1.0  0.24128489000000014  0.7367930500000001  0.9785697800000001  1.0000
  O   O8        1.0  0.2627329099999999  0.2632112700000001  0.021450080000000003  1.0000
  O   O9        1.0  0.7627305799999999  0.2582375499999999  0.021438690000000003  1.0000
  O   O10       1.0  0.7412711500000001  0.74177344  0.97854895  1.0000
