data_image0
_chemical_formula_structural       Ce2O3
_chemical_formula_sum              "Ce2 O3"
_cell_length_a       3.9117947356338383
_cell_length_b       3.9117922573269195
_cell_length_c       6.163348456033269
_cell_angle_alpha    90.00004199502104
_cell_angle_beta     90.00030004341951
_cell_angle_gamma    119.9999848370379

_space_group_name_H-M_alt    "P 1"
_space_group_IT_number       1

loop_
  _space_group_symop_operation_xyz
  'x, y, z'

loop_
  _atom_site_type_symbol
  _atom_site_label
  _atom_site_symmetry_multiplicity
  _atom_site_fract_x
  _atom_site_fract_y
  _atom_site_fract_z
  _atom_site_occupancy
  Ce  Ce1       1.0  0.66668078  0.33334006999999993  0.7535633899999999  1.0000
  Ce  Ce2       1.0  0.33335067  0.6666754499999998  0.24643665000000003  1.0000
  O   O1        1.0  0.99998399  0.9999920999999999  0.9999999600000001  1.0000
  O   O2        1.0  0.3333264499999999  0.6666633599999999  0.6454638  1.0000
  O   O3        1.0  0.6666581199999998  0.33332902  0.3545362  1.0000
