data_image0
_chemical_formula_structural       Nb4Ba2O12
_chemical_formula_sum              "Nb4 Ba2 O12"
_cell_length_a       3.991374940867631
_cell_length_b       6.189642331004449
_cell_length_c       10.72744696537815
_cell_angle_alpha    89.99985371634733
_cell_angle_beta     90.00591811306674
_cell_angle_gamma    90.00000702298412

_space_group_name_H-M_alt    "P 1"
_space_group_IT_number       1

loop_
  _space_group_symop_operation_xyz
  'x, y, z'

loop_
  _atom_site_type_symbol
  _atom_site_label
  _atom_site_symmetry_multiplicity
  _atom_site_fract_x
  _atom_site_fract_y
  _atom_site_fract_z
  _atom_site_occupancy
  Nb  Nb1       1.0  0.50047367  0.44943310999999997  0.14902447  1.0000
  Nb  Nb2       1.0  0.49952649999999993  0.9494333399999999  0.35097591  1.0000
  Nb  Nb3       1.0  0.4995263500000001  0.5505668900000001  0.8509755200000001  1.0000
  Nb  Nb4       1.0  0.50047349  0.05056666  0.64902409  1.0000
  Ba  Ba1       1.0  9.999999999999994e-09  0.9999999999999999  0.0  1.0000
  Ba  Ba2       1.0  0.99999999  0.5  0.5  1.0000
  O   O1        1.0  0.4999466  0.30105752  0.9636993099999999  1.0000
  O   O2        1.0  0.50005302  0.80105496  0.53630273  1.0000
  O   O3        1.0  0.50005341  0.69894248  0.03630069  1.0000
  O   O4        1.0  0.49994696  0.19894504  0.46369727000000005  1.0000
  O   O5        1.0  0.4999716  0.11552713  0.19765524  1.0000
  O   O6        1.0  0.50002837  0.61552956  0.3023452400000001  1.0000
  O   O7        1.0  0.50002839  0.8844728699999999  0.80234476  1.0000
  O   O8        1.0  0.49997162999999994  0.38447044999999996  0.69765476  1.0000
  O   O9        1.0  8.392e-05  0.41275376  0.14984803  1.0000
  O   O10       1.0  0.99991613  0.91275441  0.35015585  1.0000
  O   O11       1.0  0.9999160799999999  0.58724624  0.8501519700000001  1.0000
  O   O12       1.0  8.386e-05  0.08724559  0.64984414  1.0000
