data_image0
_chemical_formula_structural       Nb4Mn8O18
_chemical_formula_sum              "Nb4 Mn8 O18"
_cell_length_a       5.383493873000165
_cell_length_b       5.38349376396909
_cell_length_c       14.56604455000032
_cell_angle_alpha    90.00000311395088
_cell_angle_beta     89.99998377711192
_cell_angle_gamma    120.00002117317005

_space_group_name_H-M_alt    "P 1"
_space_group_IT_number       1

loop_
  _space_group_symop_operation_xyz
  'x, y, z'

loop_
  _atom_site_type_symbol
  _atom_site_label
  _atom_site_symmetry_multiplicity
  _atom_site_fract_x
  _atom_site_fract_y
  _atom_site_fract_z
  _atom_site_occupancy
  Nb  Nb1       1.0  0.99999954  0.99999925  0.14270941  1.0000
  Nb  Nb2       1.0  0.9999997399999999  0.99999986  0.64270939  1.0000
  Nb  Nb3       1.0  0.9999998400000001  0.9999999299999998  0.85725264  1.0000
  Nb  Nb4       1.0  0.99999969  0.99999925  0.35725266000000006  1.0000
  Mn  Mn1       1.0  0.6666662900000001  0.33333272  0.4829636400000001  1.0000
  Mn  Mn2       1.0  0.6666663299999999  0.33333305  0.98296362  1.0000
  Mn  Mn3       1.0  0.33333317  0.6666663500000001  0.5168152  1.0000
  Mn  Mn4       1.0  0.3333330099999999  0.66666613  0.01681518  1.0000
  Mn  Mn5       1.0  0.6666662499999999  0.3333324100000001  0.19593894000000003  1.0000
  Mn  Mn6       1.0  0.6666664199999999  0.33333325  0.69593895  1.0000
  Mn  Mn7       1.0  0.33333310999999993  0.66666672  0.80436586  1.0000
  Mn  Mn8       1.0  0.33333297000000006  0.66666587  0.30436588000000003  1.0000
  O   O1        1.0  0.28078264  0.9998482300000001  0.24998834000000003  1.0000
  O   O2        1.0  0.71906568  0.7192159499999999  0.24998841000000002  1.0000
  O   O3        1.0  0.00015048000000000318  0.28093314  0.24998838000000004  1.0000
  O   O4        1.0  0.28078284  0.2809340000000001  0.7499883600000001  1.0000
  O   O5        1.0  0.00015057999999989842  0.7192168299999999  0.74998838  1.0000
  O   O6        1.0  0.7190658899999999  0.99984918  0.7499884100000002  1.0000
  O   O7        1.0  0.02684488000000001  0.68814871  0.41487639  1.0000
  O   O8        1.0  0.66130392  0.97315423  0.41487633000000007  1.0000
  O   O9        1.0  0.3118504999999999  0.3386951600000001  0.41487629  1.0000
  O   O10       1.0  0.02684487000000001  0.3386956300000001  0.91487639  1.0000
  O   O11       1.0  0.31185047999999993  0.97315477  0.9148762900000001  1.0000
  O   O12       1.0  0.66130392  0.68814909  0.91487631  1.0000
  O   O13       1.0  0.97344334  0.31233164  0.5851195600000001  1.0000
  O   O14       1.0  0.3388880100000001  0.02655609  0.58511964  1.0000
  O   O15       1.0  0.6876677  0.6611114299999999  0.58511966  1.0000
  O   O16       1.0  0.9734432900000001  0.6611111700000001  0.08511955  1.0000
  O   O17       1.0  0.6876676200000001  0.02655565  0.08511965  1.0000
  O   O18       1.0  0.3388878900000001  0.3123313200000001  0.08511962  1.0000
