data_image0
_chemical_formula_structural       Al4Fe2O8
_chemical_formula_sum              "Al4 Fe2 O8"
_cell_length_a       5.841298984725936
_cell_length_b       5.8448231719529335
_cell_length_c       5.770732048040618
_cell_angle_alpha    60.37818911857272
_cell_angle_beta     60.4390920881159
_cell_angle_gamma    59.18269192896151

_space_group_name_H-M_alt    "P 1"
_space_group_IT_number       1

loop_
  _space_group_symop_operation_xyz
  'x, y, z'

loop_
  _atom_site_type_symbol
  _atom_site_label
  _atom_site_symmetry_multiplicity
  _atom_site_fract_x
  _atom_site_fract_y
  _atom_site_fract_z
  _atom_site_occupancy
  Al  Al1       1.0  0.6249999300000001  0.6250000399999999  0.1250002100000001  1.0000
  Al  Al2       1.0  0.6249999200000003  0.6250000199999999  0.62499994  1.0000
  Al  Al3       1.0  0.6249999600000002  0.12500017999999993  0.6250000000000001  1.0000
  Al  Al4       1.0  0.12500020999999986  0.6250000200000002  0.6249999600000001  1.0000
  Fe  Fe1       1.0  1.500000000134677e-07  0.9999998299999999  0.9999998900000002  1.0000
  Fe  Fe2       1.0  0.24999991000000005  0.25000015  0.25000016  1.0000
  O   O1        1.0  0.8573581999999996  0.85694928  0.86468102  1.0000
  O   O2        1.0  0.8569495299999998  0.8573582300000001  0.42101151  1.0000
  O   O3        1.0  0.8646806699999999  0.42101197999999995  0.85735799  1.0000
  O   O4        1.0  0.4210117299999999  0.8646807000000001  0.85694932  1.0000
  O   O5        1.0  0.82898822  0.38531934000000007  0.3930507599999999  1.0000
  O   O6        1.0  0.3853194  0.8289880400000001  0.39264201  1.0000
  O   O7        1.0  0.39305058  0.39264176  0.8289884700000002  1.0000
  O   O8        1.0  0.39264190000000004  0.3930507300000001  0.3853190499999999  1.0000
