data_image0
_chemical_formula_structural       Y4Fe4O12
_chemical_formula_sum              "Y4 Fe4 O12"
_cell_length_a       5.6892720010203455
_cell_length_b       7.696756346012023
_cell_length_c       5.3689985210042
_cell_angle_alpha    90.00000003571658
_cell_angle_beta     89.99999805577833
_cell_angle_gamma    90.00004037956604

_space_group_name_H-M_alt    "P 1"
_space_group_IT_number       1

loop_
  _space_group_symop_operation_xyz
  'x, y, z'

loop_
  _atom_site_type_symbol
  _atom_site_label
  _atom_site_symmetry_multiplicity
  _atom_site_fract_x
  _atom_site_fract_y
  _atom_site_fract_z
  _atom_site_occupancy
  Y   Y1        1.0  0.5692672599999999  0.24999996999999996  0.5177300599999999  1.0000
  Y   Y2        1.0  0.06926728  0.24999996999999996  0.98226993  1.0000
  Y   Y3        1.0  0.43073272999999995  0.75000002  0.4822699999999999  1.0000
  Y   Y4        1.0  0.9307327599999997  0.7500000399999999  0.01773001  1.0000
  Fe  Fe1       1.0  0.50000001  1.0000000000000002  2e-08  1.0000
  Fe  Fe2       1.0  0.9999999899999996  0.5000000000000001  0.49999996999999996  1.0000
  Fe  Fe3       1.0  0.5000000199999999  0.5000000000000001  2e-08  1.0000
  Fe  Fe4       1.0  0.9999999899999998  0.99999999  0.49999998  1.0000
  O   O1        1.0  0.9634342299999998  0.24999993999999998  0.39453028999999995  1.0000
  O   O2        1.0  0.46343424000000005  0.24999993999999998  0.10546969999999999  1.0000
  O   O3        1.0  0.03656574  0.7500000599999999  0.6054696499999999  1.0000
  O   O4        1.0  0.53656579  0.75000006  0.8945303399999999  1.0000
  O   O5        1.0  0.19688383999999998  0.94549558  0.19435142  1.0000
  O   O6        1.0  0.6968838699999998  0.5545047  0.30564859  1.0000
  O   O7        1.0  0.8031161199999999  0.44549529000000004  0.8056485699999999  1.0000
  O   O8        1.0  0.30311614  0.05450442999999999  0.69435145  1.0000
  O   O9        1.0  0.8031161599999997  0.05450442999999999  0.8056485799999998  1.0000
  O   O10       1.0  0.3031161299999998  0.4454953199999999  0.6943514199999999  1.0000
  O   O11       1.0  0.19688387999999998  0.5545047000000001  0.19435140999999997  1.0000
  O   O12       1.0  0.6968838299999999  0.9454955699999998  0.30564859  1.0000
