data_image0
_chemical_formula_structural       In6O18Y6
_chemical_formula_sum              "In6 O18 Y6"
_cell_length_a       6.414745074000741
_cell_length_b       6.414745097832775
_cell_length_c       12.440508036000052
_cell_angle_alpha    89.99999985080107
_cell_angle_beta     89.999999935858
_cell_angle_gamma    120.0000451154017

_space_group_name_H-M_alt    "P 1"
_space_group_IT_number       1

loop_
  _space_group_symop_operation_xyz
  'x, y, z'

loop_
  _atom_site_type_symbol
  _atom_site_label
  _atom_site_symmetry_multiplicity
  _atom_site_fract_x
  _atom_site_fract_y
  _atom_site_fract_z
  _atom_site_occupancy
  In  In1       1.0  0.3334579200000001  0.33345792  0.50136014  1.0000
  In  In2       1.0  0.6665410600000001  0.9999994  0.50136009  1.0000
  In  In3       1.0  0.9999994000000001  0.6665410600000001  0.50136009  1.0000
  In  In4       1.0  0.66654199  0.6665419900000001  0.00136013  1.0000
  In  In5       1.0  0.33345889999999995  6e-07  0.0013600899999999998  1.0000
  In  In6       1.0  6.00000000001112e-07  0.3334589  0.0013600899999999998  1.0000
  O   O1        1.0  0.3078132  0.3078132000000001  0.67196084  1.0000
  O   O2        1.0  0.6921851300000003  0.9999990900000001  0.67196081  1.0000
  O   O3        1.0  0.9999990899999998  0.6921851300000001  0.67196081  1.0000
  O   O4        1.0  0.69218682  0.69218682  0.17196083999999998  1.0000
  O   O5        1.0  0.3078149  9.5e-07  0.17196081  1.0000
  O   O6        1.0  9.49999999993107e-07  0.3078149000000001  0.17196081  1.0000
  O   O7        1.0  0.6400784300000001  0.64007843  0.8320908699999999  1.0000
  O   O8        1.0  0.3599200100000002  0.9999991400000001  0.8320907799999999  1.0000
  O   O9        1.0  0.9999991399999999  0.35992001  0.8320907799999999  1.0000
  O   O10       1.0  0.35992159  0.35992158  0.33209088  1.0000
  O   O11       1.0  0.6400800200000001  9e-07  0.3320907699999999  1.0000
  O   O12       1.0  9.000000001228195e-07  0.6400800200000001  0.33209078  1.0000
  O   O13       1.0  4.5000000000000003e-07  4.6e-07  0.9700558100000001  1.0000
  O   O14       1.0  0.9999994799999999  0.9999994800000002  0.4700558100000001  1.0000
  O   O15       1.0  0.33333249  0.6666658800000002  0.52840134  1.0000
  O   O16       1.0  0.6666658800000002  0.33333248  0.52840134  1.0000
  O   O17       1.0  0.66666749  0.33333408  0.028401339999999997  1.0000
  O   O18       1.0  0.33333408  0.6666675  0.028401339999999997  1.0000
  Y   Y1        1.0  0.99999916  0.9999991600000001  0.7712463799999999  1.0000
  Y   Y2        1.0  8.600000000000001e-07  8.6e-07  0.27124638  1.0000
  Y   Y3        1.0  0.33333244  0.66666579  0.73642996  1.0000
  Y   Y4        1.0  0.66666578  0.33333245000000017  0.73642996  1.0000
  Y   Y5        1.0  0.66666759  0.33333424  0.23642996  1.0000
  Y   Y6        1.0  0.33333425000000017  0.66666758  0.23642996  1.0000
