data_image0
_chemical_formula_structural       La2Mn2O6
_chemical_formula_sum              "La2 Mn2 O6"
_cell_length_a       5.593690721415865
_cell_length_b       5.594139515863315
_cell_length_c       5.556901028361032
_cell_angle_alpha    60.6460649426416
_cell_angle_beta     60.64242363517875
_cell_angle_gamma    63.60892344756402

_space_group_name_H-M_alt    "P 1"
_space_group_IT_number       1

loop_
  _space_group_symop_operation_xyz
  'x, y, z'

loop_
  _atom_site_type_symbol
  _atom_site_label
  _atom_site_symmetry_multiplicity
  _atom_site_fract_x
  _atom_site_fract_y
  _atom_site_fract_z
  _atom_site_occupancy
  La  La1       1.0  0.7648428099999997  0.7351184000000001  0.7500806699999999  1.0000
  La  La2       1.0  0.2351572099999999  0.26488161000000005  0.24991932999999997  1.0000
  Mn  Mn1       1.0  -5.909200435900992e-17  1.3293102118567223e-16  0.9999999899999998  1.0000
  Mn  Mn2       1.0  0.4999999899999999  0.50000002  0.49999998  1.0000
  O   O1        1.0  0.2028740300000001  0.8434925200000001  0.6903678999999998  1.0000
  O   O2        1.0  0.34322578999999986  0.7025951  0.19060192999999997  1.0000
  O   O3        1.0  0.6567742299999999  0.29740487000000015  0.8093980899999998  1.0000
  O   O4        1.0  0.7971259599999999  0.15650749000000003  0.30963211  1.0000
  O   O5        1.0  0.8105312499999999  0.68945935  0.24967538999999997  1.0000
  O   O6        1.0  0.18946875000000002  0.31054064  0.7503246099999998  1.0000
