data_image0
_chemical_formula_structural       Sr8Fe12O26
_chemical_formula_sum              "Sr8 Fe12 O26"
_cell_length_a       5.415601189677739
_cell_length_b       11.001314552388907
_cell_length_c       11.779308915533763
_cell_angle_alpha    117.82478438287926
_cell_angle_beta     103.34447925084918
_cell_angle_gamma    89.9169865679885

_space_group_name_H-M_alt    "P 1"
_space_group_IT_number       1

loop_
  _space_group_symop_operation_xyz
  'x, y, z'

loop_
  _atom_site_type_symbol
  _atom_site_label
  _atom_site_symmetry_multiplicity
  _atom_site_fract_x
  _atom_site_fract_y
  _atom_site_fract_z
  _atom_site_occupancy
  Sr  Sr1       1.0  0.14577978504242137  0.2773840925813218  0.3103460132231318  1.0000
  Sr  Sr2       1.0  0.6456282266038685  0.03507123025018189  0.3095422723578309  1.0000
  Sr  Sr3       1.0  0.8356228724442047  0.7251699679985818  0.6899574484428114  1.0000
  Sr  Sr4       1.0  0.3358873942828707  0.9665030444312633  0.688750098135266  1.0000
  Sr  Sr5       1.0  0.34138645951797736  0.4707319280014913  0.6761909264607766  1.0000
  Sr  Sr6       1.0  0.8411695595636388  0.20385112017651608  0.6763818699523582  1.0000
  Sr  Sr7       1.0  0.6643192488741221  0.5274900400648193  0.32335773357240066  1.0000
  Sr  Sr8       1.0  0.1645625118921572  0.7947637291315247  0.3232335968504785  1.0000
  Fe  Fe1       1.0  0.3831624733163821  0.8374827769446612  0.9344557758843592  1.0000
  Fe  Fe2       1.0  0.8798672339023668  0.09786426469320007  0.9357744976299782  1.0000
  Fe  Fe3       1.0  0.44582230652807187  0.1617721421533247  0.06562295137482009  1.0000
  Fe  Fe4       1.0  0.9486639547957197  0.9036992856865638  0.06588116835420268  1.0000
  Fe  Fe5       1.0  0.035347772706415995  0.4466656237212304  0.09643599807326099  1.0000
  Fe  Fe6       1.0  0.5367407272397245  0.650836878296161  0.09641254948940768  1.0000
  Fe  Fe7       1.0  0.9402455604722136  0.5538584793053616  0.9027609382250077  1.0000
  Fe  Fe8       1.0  0.4408244910322308  0.34742801761792896  0.9038452244159955  1.0000
  Fe  Fe9       1.0  0.24334597461618296  0.6193164029470848  0.4836938805336501  1.0000
  Fe  Fe10      1.0  0.7427026044072562  0.8635360259936959  0.4817266344482505  1.0000
  Fe  Fe11      1.0  0.7604208351623426  0.38124875563129723  0.5169240356181746  1.0000
  Fe  Fe12      1.0  0.2582654738245509  0.13404634429230813  0.513372866642527  1.0000
  O   O1        1.0  0.36929885114363964  0.7491136777162383  0.7553337277599255  1.0000
  O   O2        1.0  0.864733681797716  0.008656911168465248  0.7564195478868285  1.0000
  O   O3        1.0  0.6139669740166198  0.2521892550793794  0.2446289463844593  1.0000
  O   O4        1.0  0.11480407321023729  0.9936117520741236  0.2454027648725869  1.0000
  O   O5        1.0  0.1606726172595145  0.5289048194337412  0.2869589783230069  1.0000
  O   O6        1.0  0.6625677627878518  0.7553532519606563  0.2859433331403878  1.0000
  O   O7        1.0  0.8763621888998185  0.4691214965516081  0.7135052270240151  1.0000
  O   O8        1.0  0.3754068531363258  0.24066248658422032  0.7129368848931819  1.0000
  O   O9        1.0  0.9994204151215625  0.752727475643823  0.5157677963279993  1.0000
  O   O10       1.0  0.49862964096276835  0.7632687148647862  0.514540789268473  1.0000
  O   O11       1.0  0.4841789883887131  0.248361558729897  0.484768209069351  1.0000
  O   O12       1.0  0.983476679611293  0.23669703178679669  0.48376596124001736  1.0000
  O   O13       1.0  0.0034042643842296977  0.4911088498438829  0.4913095162277158  1.0000
  O   O14       1.0  0.5028176099465184  0.9991225828320084  0.48842835449984523  1.0000
  O   O15       1.0  0.5136032864480952  0.5101371135481898  0.5101052382168092  1.0000
  O   O16       1.0  0.011794384161561148  0.9992274064545368  0.5080559426019987  1.0000
  O   O17       1.0  0.0440469405254048  0.7391532712364464  0.9261167933946054  1.0000
  O   O18       1.0  0.5451426683683634  0.19026111429671724  0.9300494054734328  1.0000
  O   O19       1.0  0.1160802902983065  0.2601682694872239  0.0754867554688445  1.0000
  O   O20       1.0  0.6189394499097887  0.8146925119859033  0.07518937024572378  1.0000
  O   O21       1.0  0.5817329274181162  0.5302384842988984  0.9063277431911202  1.0000
  O   O22       1.0  0.08458018257142172  0.37697553457699207  0.9089434507060047  1.0000
  O   O23       1.0  0.6790247967384034  0.4720442531235348  0.0915298187004225  1.0000
  O   O24       1.0  0.17873803944306843  0.6198268913906873  0.0935200571371837  1.0000
  O   O25       1.0  0.19138174035289518  0.9993816084534046  0.9997003951944592  1.0000
  O   O26       1.0  0.6914284968730371  0.000272796959301  0.0005970430668683  1.0000
