data_image0
_chemical_formula_structural       Ca2In4O8
_chemical_formula_sum              "Ca2 In4 O8"
_cell_length_a       6.635207716003837
_cell_length_b       6.635207590001168
_cell_length_c       6.635609660571677
_cell_angle_alpha    119.99808825862853
_cell_angle_beta     119.99809041238868
_cell_angle_gamma    89.99993350096209

_space_group_name_H-M_alt    "P 1"
_space_group_IT_number       1

loop_
  _space_group_symop_operation_xyz
  'x, y, z'

loop_
  _atom_site_type_symbol
  _atom_site_label
  _atom_site_symmetry_multiplicity
  _atom_site_fract_x
  _atom_site_fract_y
  _atom_site_fract_z
  _atom_site_occupancy
  Ca  Ca1       1.0  0.25000031000000017  0.7499997300000002  0.50000004  1.0000
  Ca  Ca2       1.0  0.99999971  3e-07  4e-08  1.0000
  In  In1       1.0  0.12500056000000007  0.3750002100000001  0.7500003900000001  1.0000
  In  In2       1.0  0.6249998200000001  0.3750001800000002  0.7500003900000001  1.0000
  In  In3       1.0  0.6249998000000001  0.8749994600000001  0.24999957  1.0000
  In  In4       1.0  0.6249997900000002  0.3750001100000001  0.24999957  1.0000
  O   O1        1.0  0.41506834000000004  0.13837376  0.2767472  1.0000
  O   O2        1.0  0.8616785000000001  0.13837355000000012  0.27674735000000017  1.0000
  O   O3        1.0  0.3883194800000001  0.6116287199999999  0.22325716000000004  1.0000
  O   O4        1.0  0.8349381400000001  0.6116284600000003  0.22325724  1.0000
  O   O5        1.0  0.8616262400000001  0.5849316900000001  0.7232528000000001  1.0000
  O   O6        1.0  0.8616264900000001  0.13832144000000018  0.7232526900000003  1.0000
  O   O7        1.0  0.3883713000000001  0.6116804900000002  0.7767428400000002  1.0000
  O   O8        1.0  0.3883715200000001  0.16506189  0.77674271  1.0000
