data_image0
_chemical_formula_structural       Ca4O12Ce4
_chemical_formula_sum              "Ca4 O12 Ce4"
_cell_length_a       5.865347969000535
_cell_length_b       8.550796206001007
_cell_length_c       6.0791561250001775
_cell_angle_alpha    89.99997276649547
_cell_angle_beta     89.99999504945117
_cell_angle_gamma    89.99995138713668

_space_group_name_H-M_alt    "P 1"
_space_group_IT_number       1

loop_
  _space_group_symop_operation_xyz
  'x, y, z'

loop_
  _atom_site_type_symbol
  _atom_site_label
  _atom_site_symmetry_multiplicity
  _atom_site_fract_x
  _atom_site_fract_y
  _atom_site_fract_z
  _atom_site_occupancy
  Ca  Ca1       1.0  0.9882515400000002  0.2499999499999999  0.04838717  1.0000
  Ca  Ca2       1.0  0.5117484100000003  0.2499999999999999  0.54838714  1.0000
  Ca  Ca3       1.0  0.01174854  0.7500000599999999  0.95161289  1.0000
  Ca  Ca4       1.0  0.48825153  0.7499999899999996  0.45161289  1.0000
  O   O1        1.0  0.36697183  0.2500000099999999  0.92739881  1.0000
  O   O2        1.0  0.13302813000000002  0.2500000499999999  0.42739882  1.0000
  O   O3        1.0  0.6330280100000001  0.7499999899999995  0.07260107  1.0000
  O   O4        1.0  0.8669720100000001  0.74999995  0.57260109  1.0000
  O   O5        1.0  0.18721888  0.9282911099999998  0.18926638  1.0000
  O   O6        1.0  0.31278105  0.5717088199999999  0.6892660999999999  1.0000
  O   O7        1.0  0.31278109000000004  0.9282911299999999  0.68926639  1.0000
  O   O8        1.0  0.8127813400000002  0.4282910799999999  0.8107335999999999  1.0000
  O   O9        1.0  0.81278111  0.071709  0.8107336199999999  1.0000
  O   O10       1.0  0.6872189500000002  0.4282910899999999  0.31073388  1.0000
  O   O11       1.0  0.6872188400000002  0.07170899  0.31073363  1.0000
  O   O12       1.0  0.18721872000000003  0.57170877  0.1892664  1.0000
  Ce  Ce1       1.0  0.5000000500000001  8.000000000000007e-08  0.9999999699999998  1.0000
  Ce  Ce2       1.0  0.9999999700000001  0.4999999000000001  0.50000001  1.0000
  Ce  Ce3       1.0  0.9999999600000001  8.999999999999997e-08  0.50000009  1.0000
  Ce  Ce4       1.0  0.50000006  0.4999999299999999  4e-08  1.0000
