data_image0
_chemical_formula_structural       Nb8Ca8O28
_chemical_formula_sum              "Nb8 Ca8 O28"
_cell_length_a       7.814804389750312
_cell_length_b       13.74839844501889
_cell_length_c       5.542021653999999
_cell_angle_alpha    89.9999994135478
_cell_angle_beta     89.99999990702136
_cell_angle_gamma    98.26417183835227

_space_group_name_H-M_alt    "P 1"
_space_group_IT_number       1

loop_
  _space_group_symop_operation_xyz
  'x, y, z'

loop_
  _atom_site_type_symbol
  _atom_site_label
  _atom_site_symmetry_multiplicity
  _atom_site_fract_x
  _atom_site_fract_y
  _atom_site_fract_z
  _atom_site_occupancy
  Nb  Nb1       1.0  0.47325457999999987  0.88590825  0.26447902  1.0000
  Nb  Nb2       1.0  0.5267454099999997  0.11409175  0.76447902  1.0000
  Nb  Nb3       1.0  0.41281135  0.67647672  0.7773127300000001  1.0000
  Nb  Nb4       1.0  0.58718865  0.32352328  0.27731272  1.0000
  Nb  Nb5       1.0  0.9701196299999998  0.8871548000000001  0.26458474  1.0000
  Nb  Nb6       1.0  0.02988036  0.1128452  0.7645847400000001  1.0000
  Nb  Nb7       1.0  0.9199268899999998  0.67760241  0.7724175800000002  1.0000
  Nb  Nb8       1.0  0.08007311  0.3223976  0.27241755  1.0000
  Ca  Ca1       1.0  0.2288160399999999  0.9141447  0.7725064200000002  1.0000
  Ca  Ca2       1.0  0.7711839599999999  0.0858553  0.27250642  1.0000
  Ca  Ca3       1.0  0.13820424  0.56449096  0.33115924  1.0000
  Ca  Ca4       1.0  0.8617957699999998  0.43550904  0.83115924  1.0000
  Ca  Ca5       1.0  0.7164761099999998  0.8745934400000002  0.7521078500000002  1.0000
  Ca  Ca6       1.0  0.2835238999999999  0.12540656  0.25210783  1.0000
  Ca  Ca7       1.0  0.6378132499999999  0.5930135700000001  0.2571854  1.0000
  Ca  Ca8       1.0  0.3621867499999999  0.40698643000000007  0.7571854200000002  1.0000
  O   O1        1.0  0.5440256399999999  0.9807758099999999  0.54549173  1.0000
  O   O2        1.0  0.45597436  0.01922419  0.04549174000000001  1.0000
  O   O3        1.0  0.50326731  0.7771382200000002  0.46534198000000004  1.0000
  O   O4        1.0  0.49673269999999997  0.22286178  0.9653419800000002  1.0000
  O   O5        1.0  0.41655907999999997  0.5635022300000001  0.57187007  1.0000
  O   O6        1.0  0.5834409299999999  0.43649777  0.07187007  1.0000
  O   O7        1.0  0.22283086999999993  0.8910016500000001  0.34621356  1.0000
  O   O8        1.0  0.7771691199999999  0.10899834  0.8462135500000002  1.0000
  O   O9        1.0  0.17142291  0.6916966400000001  0.6709005700000001  1.0000
  O   O10       1.0  0.8285770899999997  0.3083033700000001  0.17090056000000003  1.0000
  O   O11       1.0  0.42356502  0.82124025  0.9466447800000002  1.0000
  O   O12       1.0  0.5764349899999999  0.17875975  0.4466447900000001  1.0000
  O   O13       1.0  0.3657188099999999  0.6141948399999999  0.07203158  1.0000
  O   O14       1.0  0.6342811999999998  0.38580516  0.5720316  1.0000
  O   O15       1.0  0.94616346  0.9822111300000002  0.54656107  1.0000
  O   O16       1.0  0.05383654  0.01778887  0.04656106000000001  1.0000
  O   O17       1.0  0.8850063299999998  0.7803305  0.47064813000000016  1.0000
  O   O18       1.0  0.11499365000000002  0.21966950000000002  0.9706481100000001  1.0000
  O   O19       1.0  0.8600618899999998  0.57421745  0.54834042  1.0000
  O   O20       1.0  0.13993813  0.4257825600000001  0.0483404  1.0000
  O   O21       1.0  0.7288917199999998  0.9147126500000001  0.16353587  1.0000
  O   O22       1.0  0.27110828  0.08528735000000001  0.6635358600000001  1.0000
  O   O23       1.0  0.6732005399999998  0.69864299  0.8565296600000001  1.0000
  O   O24       1.0  0.3267994599999999  0.3013570100000001  0.35652963  1.0000
  O   O25       1.0  0.9876835399999999  0.8176364899999999  0.9532804  1.0000
  O   O26       1.0  0.012316460000000001  0.18236351  0.45328039  1.0000
  O   O27       1.0  0.9253196599999998  0.5918371599999999  0.04125726  1.0000
  O   O28       1.0  0.07468035  0.4081628399999999  0.5412572300000001  1.0000
