data_image0
_chemical_formula_structural       Y4Mn4O14
_chemical_formula_sum              "Y4 Mn4 O14"
_cell_length_a       7.140453948875697
_cell_length_b       7.14045355996715
_cell_length_c       7.140450233736329
_cell_angle_alpha    60.00001330641644
_cell_angle_beta     60.00000461891725
_cell_angle_gamma    59.9999762698934

_space_group_name_H-M_alt    "P 1"
_space_group_IT_number       1

loop_
  _space_group_symop_operation_xyz
  'x, y, z'

loop_
  _atom_site_type_symbol
  _atom_site_label
  _atom_site_symmetry_multiplicity
  _atom_site_fract_x
  _atom_site_fract_y
  _atom_site_fract_z
  _atom_site_occupancy
  Y   Y1        1.0  1.9999999786419872e-08  0.5000002100000001  0.5000002100000001  1.0000
  Y   Y2        1.0  0.5000000699999999  2.2000000008874723e-07  0.50000018  1.0000
  Y   Y3        1.0  0.50000009  0.5000002200000001  2.2999999999999997e-07  1.0000
  Y   Y4        1.0  0.5000000299999997  0.5000002000000001  0.5000002399999999  1.0000
  Mn  Mn1       1.0  0.5000002  2.0999999999999997e-07  2.1e-07  1.0000
  Mn  Mn2       1.0  1.699999999259845e-07  0.5000002200000001  2.2999999999999997e-07  1.0000
  Mn  Mn3       1.0  1.5999999990539833e-07  2.2000000008874723e-07  0.5000002200000001  1.0000
  Mn  Mn4       1.0  1.7000000000000004e-07  2.3000000000000002e-07  2.2999999999999997e-07  1.0000
  O   O1        1.0  0.07804550999999993  0.07804556000000012  0.6719548799999999  1.0000
  O   O2        1.0  0.6719548699999998  0.6719549100000001  0.07804557999999999  1.0000
  O   O3        1.0  0.07804528999999995  0.6719551500000001  0.07804518999999999  1.0000
  O   O4        1.0  0.67195501  0.0780454200000001  0.67195509  1.0000
  O   O5        1.0  0.6719550299999999  0.0780454100000001  0.0780452799999999  1.0000
  O   O6        1.0  0.07804545999999987  0.6719549700000003  0.67195502  1.0000
  O   O7        1.0  0.9219547399999999  0.9219548300000002  0.3280456499999998  1.0000
  O   O8        1.0  0.32804541999999987  0.32804547000000034  0.9219551  1.0000
  O   O9        1.0  0.9219549799999996  0.3280453800000003  0.92195521  1.0000
  O   O10       1.0  0.32804527999999966  0.9219552300000001  0.32804528000000005  1.0000
  O   O11       1.0  0.32804538999999977  0.9219550100000004  0.92195512  1.0000
  O   O12       1.0  0.9219550399999996  0.3280454300000002  0.3280453799999999  1.0000
  O   O13       1.0  0.6249999899999997  0.6250002000000002  0.6250002199999997  1.0000
  O   O14       1.0  0.3750000199999999  0.3750002500000001  0.3750002399999998  1.0000
