data_image0
_chemical_formula_structural       Co4La8O16
_chemical_formula_sum              "Co4 La8 O16"
_cell_length_a       9.006315864989244
_cell_length_b       6.938236531380863
_cell_length_c       7.938255709862159
_cell_angle_alpha    74.17154984663415
_cell_angle_beta     75.45720457473705
_cell_angle_gamma    57.99794116358568

_space_group_name_H-M_alt    "P 1"
_space_group_IT_number       1

loop_
  _space_group_symop_operation_xyz
  'x, y, z'

loop_
  _atom_site_type_symbol
  _atom_site_label
  _atom_site_symmetry_multiplicity
  _atom_site_fract_x
  _atom_site_fract_y
  _atom_site_fract_z
  _atom_site_occupancy
  Co  Co1       1.0  4.623679831280899e-18  1.8869065712251773e-17  0.49999999999999983  1.0000
  Co  Co2       1.0  -9.861728513795424e-17  1.0  0.9999999999999999  1.0000
  Co  Co3       1.0  0.4999999999999998  0.5000000000000001  0.0  1.0000
  Co  Co4       1.0  0.4999999999999998  0.5  0.5000000000000001  1.0000
  La  La1       1.0  0.32739989999999985  0.9473763300000002  0.19010247999999996  1.0000
  La  La2       1.0  0.17259828999999993  0.5526205000000001  0.3099038100000001  1.0000
  La  La3       1.0  0.19002793999999987  0.5352048  0.8274319700000001  1.0000
  La  La4       1.0  0.30997438999999977  0.96479308  0.6725712200000001  1.0000
  La  La5       1.0  0.8274017099999996  0.44737947999999994  0.69009619  1.0000
  La  La6       1.0  0.6726001099999999  0.052623659999999926  0.8098974899999999  1.0000
  La  La7       1.0  0.6900256199999998  0.03520692000000001  0.3274287699999999  1.0000
  La  La8       1.0  0.8099720799999999  0.4647951900000002  0.17256802  1.0000
  O   O1        1.0  0.4921050299999998  0.47608055000000005  0.2579490899999998  1.0000
  O   O2        1.0  0.7579796699999997  0.27395091000000005  0.49207045999999993  1.0000
  O   O3        1.0  0.007899470000000009  0.023934019999999997  0.24204568  1.0000
  O   O4        1.0  0.7420193099999998  0.22604617  0.007929259999999999  1.0000
  O   O5        1.0  0.9921005399999994  0.9760659700000002  0.75795432  1.0000
  O   O6        1.0  0.2579806899999998  0.7739538300000001  0.9920707299999999  1.0000
  O   O7        1.0  0.5078949799999997  0.52391944  0.74205091  1.0000
  O   O8        1.0  0.2420203299999998  0.7260490900000001  0.5079295299999999  1.0000
  O   O9        1.0  0.3768821199999999  0.26173898  0.057767679999999995  1.0000
  O   O10       1.0  0.12310962000000002  0.23826444999999996  0.44224868  1.0000
  O   O11       1.0  0.05764963  0.30371774000000007  0.8770075199999999  1.0000
  O   O12       1.0  0.44235185999999993  0.19628178000000002  0.6229834599999999  1.0000
  O   O13       1.0  0.8768903499999995  0.7617355700000001  0.5577513400000002  1.0000
  O   O14       1.0  0.6231178699999997  0.73826104  0.94223233  1.0000
  O   O15       1.0  0.5576481199999995  0.8037182399999999  0.3770165500000001  1.0000
  O   O16       1.0  0.9423503699999997  0.6962822699999999  0.12299251000000008  1.0000
