data_image0
_chemical_formula_structural       Sr4Co4O12
_chemical_formula_sum              "Sr4 Co4 O12"
_cell_length_a       4.907901575230415
_cell_length_b       5.572037285352457
_cell_length_c       9.554446785230784
_cell_angle_alpha    91.38896475532088
_cell_angle_beta     91.57367642129863
_cell_angle_gamma    90.03082563932624

_space_group_name_H-M_alt    "P 1"
_space_group_IT_number       1

loop_
  _space_group_symop_operation_xyz
  'x, y, z'

loop_
  _atom_site_type_symbol
  _atom_site_label
  _atom_site_symmetry_multiplicity
  _atom_site_fract_x
  _atom_site_fract_y
  _atom_site_fract_z
  _atom_site_occupancy
  Sr  Sr1       1.0  0.9607396100000002  0.25153835  0.3421772000000001  1.0000
  Sr  Sr2       1.0  0.04612914  0.76361975  0.6591495700000001  1.0000
  Sr  Sr3       1.0  0.44643668999999997  0.7491048599999999  0.34549953  1.0000
  Sr  Sr4       1.0  0.5606362900000001  0.2637357399999999  0.65582712  1.0000
  Co  Co1       1.0  0.9994013800000001  0.26054903999999995  0.99564929  1.0000
  Co  Co2       1.0  0.9958526400000002  0.7598399600000001  0.00281698  1.0000
  Co  Co3       1.0  0.4972614200000001  0.00887447  0.00010676  1.0000
  Co  Co4       1.0  0.49783572  0.5096027700000001  0.99980563  1.0000
  O   O1        1.0  0.67819502  0.26192475  0.10026025  1.0000
  O   O2        1.0  0.32161763  0.7582143699999999  0.8994861100000001  1.0000
  O   O3        1.0  0.6653664700000002  0.76803289  0.10302256  1.0000
  O   O4        1.0  0.32701621  0.25259596999999995  0.8965180000000001  1.0000
  O   O5        1.0  0.1706837  0.017379149999999996  0.10456604  1.0000
  O   O6        1.0  0.8271160800000001  0.50386647  0.8942237600000003  1.0000
  O   O7        1.0  0.8224261400000001  0.006846190000000001  0.8943057  1.0000
  O   O8        1.0  0.16883696  0.50904795  0.10481596000000001  1.0000
  O   O9        1.0  0.93959611  0.7078625099999999  0.40292278  1.0000
  O   O10       1.0  0.06725407  0.21652414999999997  0.59775495  1.0000
  O   O11       1.0  0.45086532000000007  0.21158909000000004  0.40097127  1.0000
  O   O12       1.0  0.55673379  0.71925155  0.60012057  1.0000
