data_image0
_chemical_formula_structural       Fe4O12La4
_chemical_formula_sum              "Fe4 O12 La4"
_cell_length_a       5.5976477290011815
_cell_length_b       5.653801339017732
_cell_length_c       7.924164210014841
_cell_angle_alpha    89.99975119943882
_cell_angle_beta     89.99999937744917
_cell_angle_gamma    90.00000034087246

_space_group_name_H-M_alt    "P 1"
_space_group_IT_number       1

loop_
  _space_group_symop_operation_xyz
  'x, y, z'

loop_
  _atom_site_type_symbol
  _atom_site_label
  _atom_site_symmetry_multiplicity
  _atom_site_fract_x
  _atom_site_fract_y
  _atom_site_fract_z
  _atom_site_occupancy
  Fe  Fe1       1.0  0.4999995699999999  3e-08  4.6999999999999995e-07  1.0000
  Fe  Fe2       1.0  3.399999999999999e-07  0.49999955999999995  0.49999924000000007  1.0000
  Fe  Fe3       1.0  0.49999951  1.0000000000000578e-08  0.49999936999999994  1.0000
  Fe  Fe4       1.0  3.8e-07  0.4999995700000001  6.2e-07  1.0000
  O   O1        1.0  0.42604454  0.98322607  0.24999990999999996  1.0000
  O   O2        1.0  0.07395534  0.4832257  0.24999985999999996  1.0000
  O   O3        1.0  0.57395431  0.016773869999999996  0.7499999599999999  1.0000
  O   O4        1.0  0.92604556  0.51677356  0.7500000199999999  1.0000
  O   O5        1.0  0.7858993199999998  0.7865254999999999  0.03950123999999999  1.0000
  O   O6        1.0  0.71410085  0.28652533999999996  0.46049874999999996  1.0000
  O   O7        1.0  0.21410087  0.21347437  0.53950072  1.0000
  O   O8        1.0  0.28589936  0.71347416  0.96049913  1.0000
  O   O9        1.0  0.21410057  0.21347420999999997  0.9604991399999999  1.0000
  O   O10       1.0  0.2858991  0.7134744700000001  0.53950072  1.0000
  O   O11       1.0  0.7858989999999999  0.7865253499999999  0.46049878000000005  1.0000
  O   O12       1.0  0.7141007199999999  0.2865256  0.03950127  1.0000
  La  La1       1.0  0.50749224  0.5377285800000001  0.24999961999999998  1.0000
  La  La2       1.0  0.99250786  0.03772974  0.24999961999999998  1.0000
  La  La3       1.0  0.4925035899999999  0.46227128000000006  0.7500002899999999  1.0000
  La  La4       1.0  0.00749656  0.96227244  0.75000027  1.0000
