data_image0
_chemical_formula_structural       La12Sr4Mn4Fe4Co4Al4O48
_chemical_formula_sum              "La12 Sr4 Mn4 Fe4 Co4 Al4 O48"
_cell_length_a       11.023710304285999
_cell_length_b       11.023710476104199
_cell_length_c       11.023710476104199
_cell_angle_alpha    60.127773985269734
_cell_angle_beta     60.12777428479586
_cell_angle_gamma    60.12777428479586

_space_group_name_H-M_alt    "P 1"
_space_group_IT_number       1

loop_
  _space_group_symop_operation_xyz
  'x, y, z'

loop_
  _atom_site_type_symbol
  _atom_site_label
  _atom_site_symmetry_multiplicity
  _atom_site_fract_x
  _atom_site_fract_y
  _atom_site_fract_z
  _atom_site_occupancy
  La  La1       1.0  0.1228183616593712  0.12534822279493  0.125373618613012  1.0000
  La  La2       1.0  0.8690245447205035  0.8715666967830061  0.3768888862867877  1.0000
  La  La3       1.0  0.12128327764416959  0.6294322522505233  0.6245614306918144  1.0000
  La  La4       1.0  0.3833666236932389  0.8686509768787478  0.8763913685337714  1.0000
  La  La5       1.0  0.13328730107792672  0.1254476858141525  0.6196532646535406  1.0000
  La  La6       1.0  0.3818646143309036  0.37786659573368125  0.3700930391968846  1.0000
  La  La7       1.0  0.631599425239167  0.1274669078524615  0.6245711250999976  1.0000
  La  La8       1.0  0.6115028721721752  0.622978271154313  0.63005697861898  1.0000
  La  La9       1.0  0.8669534906648189  0.3735472757271758  0.8771283892110122  1.0000
  La  La10      1.0  0.8817348911406095  0.8733714395364603  0.8789478201757257  1.0000
  La  La11      1.0  0.8834468258793551  0.37482589988482873  0.3748185939387293  1.0000
  La  La12      1.0  0.6108852262921086  0.1267312893313539  0.1233805618189214  1.0000
  Sr  Sr1       1.0  0.3685642419048593  0.8747346834104248  0.3759742727110224  1.0000
  Sr  Sr2       1.0  0.3666733819041966  0.3730944753068339  0.8790578239346591  1.0000
  Sr  Sr3       1.0  0.13218847177398899  0.6215173557820763  0.1226538389383031  1.0000
  Sr  Sr4       1.0  0.6301677661765587  0.6319178281995602  0.1217235892805714  1.0000
  Mn  Mn1       1.0  0.7529758104753286  0.7482808049904957  0.7495330336839751  1.0000
  Mn  Mn2       1.0  -0.0007763503572417386  0.9985304805962265  0.00046118674773109995  1.0000
  Mn  Mn3       1.0  0.2487840057753785  0.7532507916041041  0.2501790665931264  1.0000
  Mn  Mn4       1.0  1.0025440312226865  0.5011803207085604  -0.0010888245368363  1.0000
  Fe  Fe1       1.0  0.5015480178113435  0.4999330507052436  0.5011884194496236  1.0000
  Fe  Fe2       1.0  0.4961128799398068  0.999799335542889  0.4992571956528091  1.0000
  Fe  Fe3       1.0  0.748827851309103  0.2523015843755424  0.2527065051706578  1.0000
  Fe  Fe4       1.0  0.49573925600791907  0.4966041421836462  0.9992387751478049  1.0000
  Co  Co1       1.0  0.7454198751151211  0.7501759584343689  0.2527292212469054  1.0000
  Co  Co2       1.0  0.4973845366079063  0.0036332767581494173  1.0017158019776062  1.0000
  Co  Co3       1.0  0.25324993661728573  0.24878669333165418  0.7485549539169344  1.0000
  Co  Co4       1.0  0.0014642562391959  0.4955377328485294  0.498200523582357  1.0000
  Al  Al1       1.0  0.7518400879354766  0.2462543474697472  0.7488079327126961  1.0000
  Al  Al2       1.0  0.24775187223670705  0.2496940102378244  0.2515835869266287  1.0000
  Al  Al3       1.0  0.0023023679807226308  0.001962427658993714  0.5027226281579272  1.0000
  Al  Al4       1.0  0.2491461055778255  0.7493300462224314  0.7474402136273629  1.0000
  O   O1        1.0  0.9022124583019281  0.8526184273306842  0.1219148910170341  1.0000
  O   O2        1.0  0.849097076516972  0.12250228785897535  0.9047939167345714  1.0000
  O   O3        1.0  0.8829417459047431  0.09403270829866489  0.1490901995449747  1.0000
  O   O4        1.0  0.12134785113910565  0.9027306017048228  0.8483125065036594  1.0000
  O   O5        1.0  0.15184537861776015  0.8808653695054931  0.0947648316323857  1.0000
  O   O6        1.0  0.09181184525736379  0.1493320196377469  0.8798870835765763  1.0000
  O   O7        1.0  0.6505694750540519  0.8790833366475416  0.0992886802951485  1.0000
  O   O8        1.0  0.8757892230805382  0.09842932225436529  0.6516375651181456  1.0000
  O   O9        1.0  0.890398935681408  0.36749355008574497  0.0991583990031857  1.0000
  O   O10       1.0  0.11421326789702387  0.6377449475322482  0.8893848960184788  1.0000
  O   O11       1.0  0.12062602662415192  0.9015414693743585  0.3503123231427064  1.0000
  O   O12       1.0  0.3466266940841534  0.12618324928101143  0.8970894449053726  1.0000
  O   O13       1.0  0.6315922742514118  0.905821347996312  0.3469460701898919  1.0000
  O   O14       1.0  0.8978625121805662  0.3416227560826733  0.6313620164183247  1.0000
  O   O15       1.0  0.6336518647855681  0.3509739280444916  0.11696349379110309  1.0000
  O   O16       1.0  0.36912567173398136  0.6484089111575325  0.872642073848563  1.0000
  O   O17       1.0  0.10374544299967134  0.6572350917041201  0.3747636349636145  1.0000
  O   O18       1.0  0.37375966764474583  0.0922176201364332  0.6557030009250848  1.0000
  O   O19       1.0  0.8786920563000299  0.5952555196376698  0.147894398280721  1.0000
  O   O20       1.0  0.6101960009846789  0.1421583191302485  0.8738684471530942  1.0000
  O   O21       1.0  0.8728736473899742  0.1410822419131744  0.3873208990120569  1.0000
  O   O22       1.0  0.12540469921149122  0.8595791524208417  0.6222530297989487  1.0000
  O   O23       1.0  0.3898612616766188  0.8579548113750107  0.1200670730089983  1.0000
  O   O24       1.0  0.1193304966562814  0.4076270743772218  0.8488649699421327  1.0000
  O   O25       1.0  0.8514174053873078  0.6272749591248307  0.4090857569047816  1.0000
  O   O26       1.0  0.6337543985099338  0.39074467663699036  0.8480084504772989  1.0000
  O   O27       1.0  0.6176589390497434  0.13238735781516558  0.4002841685319189  1.0000
  O   O28       1.0  0.37793593635502554  0.8641714183108579  0.6126434285095305  1.0000
  O   O29       1.0  0.37007306139261104  0.608504513104674  0.1510765701974807  1.0000
  O   O30       1.0  0.15084253590831903  0.37159137032703266  0.5982291979148913  1.0000
  O   O31       1.0  0.37781688448302725  0.3644532645992277  0.1164911494910644  1.0000
  O   O32       1.0  0.6410801268792128  0.8441779155509206  0.6188727019117003  1.0000
  O   O33       1.0  0.8838851494431377  0.5987433597718322  0.6568021936368129  1.0000
  O   O34       1.0  0.1214010484609355  0.3910707425924117  0.3515186807666696  1.0000
  O   O35       1.0  0.36237370376859684  0.15156410619155983  0.3816233060490185  1.0000
  O   O36       1.0  0.6253553870076239  0.631055799802085  0.8850561008672961  1.0000
  O   O37       1.0  0.8814146220297109  0.8704957605039535  0.6046224001090149  1.0000
  O   O38       1.0  0.8698298153741563  0.6501311448170948  0.8811432201825997  1.0000
  O   O39       1.0  0.6227305995242914  0.8980037972949295  0.8430665168348015  1.0000
  O   O40       1.0  0.37018618202021136  0.10975040792661  0.1503938555207599  1.0000
  O   O41       1.0  0.12673510791445192  0.3560028680449299  0.11877178048423159  1.0000
  O   O42       1.0  0.1170156189941662  0.13198493428489852  0.3920684780257598  1.0000
  O   O43       1.0  0.61240874828446  0.6434057930304415  0.3846607367747362  1.0000
  O   O44       1.0  0.6547790525483977  0.3639177459631138  0.6043866138807147  1.0000
  O   O45       1.0  0.6242272338101792  0.4024403662831707  0.3484079703307797  1.0000
  O   O46       1.0  0.3702510602619259  0.6057216986443299  0.6487935137868591  1.0000
  O   O47       1.0  0.3990997065027  0.3518879995763323  0.6116801444014714  1.0000
  O   O48       1.0  0.34448194534715343  0.6342669762063124  0.3935232978240212  1.0000
