data_image0
_chemical_formula_structural       Mn8O16Ti4
_chemical_formula_sum              "Mn8 O16 Ti4"
_cell_length_a       6.226302379000006
_cell_length_b       6.22947539708804
_cell_length_c       8.673069475609365
_cell_angle_alpha    89.87449916420373
_cell_angle_beta     89.9999995181337
_cell_angle_gamma    90.00000041201977

_space_group_name_H-M_alt    "P 1"
_space_group_IT_number       1

loop_
  _space_group_symop_operation_xyz
  'x, y, z'

loop_
  _atom_site_type_symbol
  _atom_site_label
  _atom_site_symmetry_multiplicity
  _atom_site_fract_x
  _atom_site_fract_y
  _atom_site_fract_z
  _atom_site_occupancy
  Mn  Mn1       1.0  0.7477630499999999  0.99999999  0.74999999  1.0000
  Mn  Mn2       1.0  0.24827846999999997  1.0  0.24999998  1.0000
  Mn  Mn3       1.0  0.00109215  0.7490064499999998  0.4985526900000001  1.0000
  Mn  Mn4       1.0  0.00109212  0.25099356  0.00144729  1.0000
  Mn  Mn5       1.0  0.7473606399999999  0.7483874899999998  0.12379311000000001  1.0000
  Mn  Mn6       1.0  0.25121178999999993  0.2520775  0.6254203500000001  1.0000
  Mn  Mn7       1.0  0.2512118099999999  0.7479225  0.87457961  1.0000
  Mn  Mn8       1.0  0.7473606299999999  0.25161251  0.37620686  1.0000
  O   O1        1.0  0.9659409099999999  0.72941664  0.75296324  1.0000
  O   O2        1.0  0.03374768  0.27141971  0.25396134  1.0000
  O   O3        1.0  0.2715376299999999  0.96586508  0.50368311  1.0000
  O   O4        1.0  0.7299764699999999  0.03426767  0.00356709  1.0000
  O   O5        1.0  0.03374769  0.7285802899999999  0.24603862  1.0000
  O   O6        1.0  0.9659409099999999  0.27058335  0.74703673  1.0000
  O   O7        1.0  0.7299764699999999  0.9657323299999999  0.49643288  1.0000
  O   O8        1.0  0.27153761  0.03413493  0.9963168400000001  1.0000
  O   O9        1.0  0.51578352  0.7302624499999998  0.7297213700000001  1.0000
  O   O10       1.0  0.4836833999999999  0.26956345  0.22943242  1.0000
  O   O11       1.0  0.26970429  0.51570253  0.47983561  1.0000
  O   O12       1.0  0.7307717599999998  0.4840548699999999  0.97959656  1.0000
  O   O13       1.0  0.4836833999999999  0.73043656  0.2705675400000001  1.0000
  O   O14       1.0  0.5157835099999998  0.2697375399999999  0.7702786000000001  1.0000
  O   O15       1.0  0.7307717699999998  0.5159451299999999  0.5204034  1.0000
  O   O16       1.0  0.26970429  0.4842974699999999  0.02016435  1.0000
  Ti  Ti1       1.0  0.7559079399999998  0.49999999000000006  0.7499999699999998  1.0000
  Ti  Ti2       1.0  0.24564866  0.5  0.24999998999999998  1.0000
  Ti  Ti3       1.0  0.5003907199999998  0.75510211  0.50004964  1.0000
  Ti  Ti4       1.0  0.5003907199999998  0.24489789  0.99995032  1.0000
