data_image0
_chemical_formula_structural       Sr2Fe24O38
_chemical_formula_sum              "Sr2 Fe24 O38"
_cell_length_a       5.9376267343326745
_cell_length_b       5.949681927006573
_cell_length_c       23.202445012644528
_cell_angle_alpha    89.96429135680187
_cell_angle_beta     89.98804999864107
_cell_angle_gamma    120.03306260805734

_space_group_name_H-M_alt    "P 1"
_space_group_IT_number       1

loop_
  _space_group_symop_operation_xyz
  'x, y, z'

loop_
  _atom_site_type_symbol
  _atom_site_label
  _atom_site_symmetry_multiplicity
  _atom_site_fract_x
  _atom_site_fract_y
  _atom_site_fract_z
  _atom_site_occupancy
  Sr  Sr1       1.0  0.6687544500000002  0.3353145399999999  0.24853128  1.0000
  Sr  Sr2       1.0  0.32847655000000003  0.6619644699999999  0.74975146  1.0000
  Fe  Fe1       1.0  0.9984428000000002  0.9982170499999999  0.50033228  1.0000
  Fe  Fe2       1.0  0.9989541000000001  0.0021280499999999994  0.00058455  1.0000
  Fe  Fe3       1.0  0.0004036000000000811  0.9998874399999998  0.2560154  1.0000
  Fe  Fe4       1.0  0.9971556900000003  0.99646259  0.75418344  1.0000
  Fe  Fe5       1.0  0.3338244000000001  0.6691481  0.47285777  1.0000
  Fe  Fe6       1.0  0.6655093500000001  0.33209428  0.52755394  1.0000
  Fe  Fe7       1.0  0.66503872  0.33202079  0.9729430800000001  1.0000
  Fe  Fe8       1.0  0.33441729  0.66537035  0.02672134  1.0000
  Fe  Fe9       1.0  0.33400272000000003  0.66850654  0.30843256  1.0000
  Fe  Fe10      1.0  0.6647510500000001  0.33173694  0.6905179000000001  1.0000
  Fe  Fe11      1.0  0.6622415  0.32643048  0.80830279  1.0000
  Fe  Fe12      1.0  0.33442531  0.6658564100000001  0.19145876000000003  1.0000
  Fe  Fe13      1.0  0.1668301500000001  0.8300389700000002  0.60918329  1.0000
  Fe  Fe14      1.0  0.66111723  0.8299919699999998  0.60923032  1.0000
  Fe  Fe15      1.0  0.16687266  0.3357530899999999  0.60907814  1.0000
  Fe  Fe16      1.0  0.8350052200000002  0.17464906  0.39049747  1.0000
  Fe  Fe17      1.0  0.33926136000000007  0.17479444  0.39053557000000005  1.0000
  Fe  Fe18      1.0  0.83180505  0.66425651  0.3910542799999999  1.0000
  Fe  Fe19      1.0  0.8376540200000002  0.16320414  0.11093024  1.0000
  Fe  Fe20      1.0  0.3417610200000001  0.16532405  0.10931292000000001  1.0000
  Fe  Fe21      1.0  0.83526892  0.65924438  0.10920261  1.0000
  Fe  Fe22      1.0  0.16556255999999986  0.8236089499999998  0.89041673  1.0000
  Fe  Fe23      1.0  0.6556631800000001  0.82338478  0.89020378  1.0000
  Fe  Fe24      1.0  0.16203069  0.32618799  0.8895895899999999  1.0000
  O   O1        1.0  0.0021913000000000006  0.00456046  0.34765511000000004  1.0000
  O   O2        1.0  0.9984610100000001  0.9987507399999997  0.6512099  1.0000
  O   O3        1.0  0.99893283  0.9998511899999998  0.847021  1.0000
  O   O4        1.0  0.0038564999999998735  0.9964053099999997  0.15081326  1.0000
  O   O5        1.0  0.6685438300000001  0.33757813999999997  0.44427767  1.0000
  O   O6        1.0  0.33199681  0.6657618399999999  0.55509324  1.0000
  O   O7        1.0  0.33736743  0.6763963799999999  0.9447624400000001  1.0000
  O   O8        1.0  0.6631001100000001  0.33740773  0.0550311  1.0000
  O   O9        1.0  0.1796113700000001  0.81696826  0.24993107  1.0000
  O   O10       1.0  0.63859007  0.81893252  0.25046695  1.0000
  O   O11       1.0  0.17970232  0.3623438099999999  0.25100331  1.0000
  O   O12       1.0  0.8176329399999999  0.18015989  0.7500285499999999  1.0000
  O   O13       1.0  0.3608513300000001  0.17922486  0.75000006  1.0000
  O   O14       1.0  0.8172865400000001  0.63454492  0.75011659  1.0000
  O   O15       1.0  0.15544838000000014  0.8438436400000001  0.4475144099999999  1.0000
  O   O16       1.0  0.68722321  0.84359273  0.44740951999999995  1.0000
  O   O17       1.0  0.15403917000000003  0.3088368399999999  0.44744888000000005  1.0000
  O   O18       1.0  0.8411413100000001  0.15594280999999996  0.55242898  1.0000
  O   O19       1.0  0.3133968100000001  0.15619665  0.55248831  1.0000
  O   O20       1.0  0.8412678800000001  0.6844134299999998  0.55256046  1.0000
  O   O21       1.0  0.84893481  0.16372174  0.9461393  1.0000
  O   O22       1.0  0.3115752700000001  0.16359025  0.94611474  1.0000
  O   O23       1.0  0.8442694100000002  0.6914122499999998  0.9464228500000001  1.0000
  O   O24       1.0  0.15548446  0.8463149899999999  0.052325979999999994  1.0000
  O   O25       1.0  0.6869367600000001  0.8468074899999999  0.052524230000000005  1.0000
  O   O26       1.0  0.15465151999999996  0.31421978999999983  0.05258168999999999  1.0000
  O   O27       1.0  0.51013989  0.50321585  0.3489749600000001  1.0000
  O   O28       1.0  0.9928510800000002  0.50357512  0.34911334  1.0000
  O   O29       1.0  0.5100851100000001  0.02108848  0.34707034  1.0000
  O   O30       1.0  0.49411853000000017  0.50250736  0.651381  1.0000
  O   O31       1.0  0.0060802700000000065  0.50229505  0.6512236  1.0000
  O   O32       1.0  0.49442051  0.9907215399999999  0.65137147  1.0000
  O   O33       1.0  0.4920944800000001  0.5069142299999998  0.84770011  1.0000
  O   O34       1.0  0.01238801  0.50689532  0.84796253  1.0000
  O   O35       1.0  0.49510942  0.9924932199999998  0.84815266  1.0000
  O   O36       1.0  0.51048993  0.4897378199999998  0.15337539  1.0000
  O   O37       1.0  0.9927124300000001  0.48897063  0.15130844  1.0000
  O   O38       1.0  0.5117798600000002  0.0082153  0.15157642  1.0000
