data_image0
_chemical_formula_structural       Mn4O12La4
_chemical_formula_sum              "Mn4 O12 La4"
_cell_length_a       5.893044381357989
_cell_length_b       7.753413343123756
_cell_length_c       5.601552738696338
_cell_angle_alpha    90.00000129780103
_cell_angle_beta     89.99999441757686
_cell_angle_gamma    89.99998525671809

_space_group_name_H-M_alt    "P 1"
_space_group_IT_number       1

loop_
  _space_group_symop_operation_xyz
  'x, y, z'

loop_
  _atom_site_type_symbol
  _atom_site_label
  _atom_site_symmetry_multiplicity
  _atom_site_fract_x
  _atom_site_fract_y
  _atom_site_fract_z
  _atom_site_occupancy
  Mn  Mn1       1.0  0.49999948999999994  4.000000000000001e-08  2.7e-07  1.0000
  Mn  Mn2       1.0  0.99999947  0.50000043  0.49999999  1.0000
  Mn  Mn3       1.0  0.49999937999999994  0.4999999600000002  1.9e-07  1.0000
  Mn  Mn4       1.0  0.9999994199999999  0.9999996800000002  0.49999996  1.0000
  O   O1        1.0  0.9830186  0.25000087  0.42113686999999994  1.0000
  O   O2        1.0  0.48301914000000007  0.2500009200000001  0.07886313  1.0000
  O   O3        1.0  0.016979619999999997  0.7499993300000002  0.57886231  1.0000
  O   O4        1.0  0.5169801700000001  0.7499991000000003  0.9211377499999999  1.0000
  O   O5        1.0  0.80989252  0.04026335000000001  0.7783304299999999  1.0000
  O   O6        1.0  0.3098925900000001  0.4597369600000001  0.7216692299999998  1.0000
  O   O7        1.0  0.19010638  0.5402623600000002  0.22166917  1.0000
  O   O8        1.0  0.69010676  0.9597370700000001  0.27833095  1.0000
  O   O9        1.0  0.19010595  0.9597367900000002  0.22166878  1.0000
  O   O10       1.0  0.6901070600000002  0.5402621900000002  0.27833037  1.0000
  O   O11       1.0  0.8098923300000002  0.45973737  0.77833012  1.0000
  O   O12       1.0  0.3098931600000001  0.04026371  0.72166932  1.0000
  La  La1       1.0  0.55785029  0.2500006000000001  0.51010522  1.0000
  La  La2       1.0  0.05784594  0.2500004000000001  0.9898955099999999  1.0000
  La  La3       1.0  0.44215466000000003  0.7499994300000001  0.48989194  1.0000
  La  La4       1.0  0.9421498200000002  0.7499994200000002  0.01010851  1.0000
