data_image0
_chemical_formula_structural       Sr4La4Mn4Al4O24
_chemical_formula_sum              "Sr4 La4 Mn4 Al4 O24"
_cell_length_a       7.673974379897044
_cell_length_b       7.673974166573146
_cell_length_c       7.673974467988448
_cell_angle_alpha    90.00001019776644
_cell_angle_beta     90.00001108782953
_cell_angle_gamma    89.99998911952481

_space_group_name_H-M_alt    "P 1"
_space_group_IT_number       1

loop_
  _space_group_symop_operation_xyz
  'x, y, z'

loop_
  _atom_site_type_symbol
  _atom_site_label
  _atom_site_symmetry_multiplicity
  _atom_site_fract_x
  _atom_site_fract_y
  _atom_site_fract_z
  _atom_site_occupancy
  Sr  Sr1       1.0  0.2500000100000001  0.75000002  0.7499999799999999  1.0000
  Sr  Sr2       1.0  0.75000002  0.2500000100000001  0.74999999  1.0000
  Sr  Sr3       1.0  0.75000002  0.75  0.2499999999999999  1.0000
  Sr  Sr4       1.0  0.25000000999999994  0.25  0.2499999999999999  1.0000
  La  La1       1.0  0.7500000000000002  0.7499999800000001  0.7500000399999999  1.0000
  La  La2       1.0  0.2500000000000001  0.2499999800000001  0.7500000399999999  1.0000
  La  La3       1.0  0.24999997999999998  0.7499999499999999  0.2499999999999999  1.0000
  La  La4       1.0  0.7500000100000002  0.24999995  0.2500000199999999  1.0000
  Mn  Mn1       1.0  9.999999999999994e-09  0.0  0.5  1.0000
  Mn  Mn2       1.0  0.9999999999999998  0.5000000000000001  0.9999999899999998  1.0000
  Mn  Mn3       1.0  0.49999999999999994  1.0000000000000004e-08  0.99999999  1.0000
  Mn  Mn4       1.0  0.5000000000000001  0.5  0.4999999999999998  1.0000
  Al  Al1       1.0  2.000000000000001e-08  2.000000010000001e-08  0.9999999899999998  1.0000
  Al  Al2       1.0  0.0  0.5  0.4999999999999999  1.0000
  Al  Al3       1.0  0.5000000000000001  1.0000000000000002  0.4999999999999999  1.0000
  Al  Al4       1.0  0.50000001  0.5000000100000002  0.99999998  1.0000
  O   O1        1.0  0.99999999  0.0  0.7502517300000001  1.0000
  O   O2        1.0  1.0000000000000002  0.7502517500000002  0.9999999799999999  1.0000
  O   O3        1.0  0.24974826999999997  0.9999999900000001  0.9999999900000001  1.0000
  O   O4        1.0  0.75025173  1.9999999999999977e-08  0.99999998  1.0000
  O   O5        1.0  1.0000000000000002  0.2497482600000001  -1e-16  1.0000
  O   O6        1.0  8.567937973937315e-25  1.0000000000000004e-08  0.24974826  1.0000
  O   O7        1.0  0.7497482800000003  0.99999999  0.5000000099999999  1.0000
  O   O8        1.0  1.0000000000000002  0.74974826  0.5000000299999999  1.0000
  O   O9        1.0  0.25025173  2.0000000000000007e-08  0.4999999899999999  1.0000
  O   O10       1.0  0.9999999999999999  0.2502517500000001  0.4999999999999999  1.0000
  O   O11       1.0  0.7497482700000001  0.4999999800000001  9.9999999e-09  1.0000
  O   O12       1.0  0.2502517200000001  0.50000002  0.9999999799999999  1.0000
  O   O13       1.0  1.0000000000000002  0.50000002  0.74974828  1.0000
  O   O14       1.0  0.99999997  0.4999999800000002  0.2502517199999999  1.0000
  O   O15       1.0  0.49999999000000006  0.74974826  1e-08  1.0000
  O   O16       1.0  0.49999998999999995  0.25025175  0.9999999799999999  1.0000
  O   O17       1.0  0.50000001  9.999999999999989e-09  0.74974827  1.0000
  O   O18       1.0  0.49999999000000006  1.0  0.25025172  1.0000
  O   O19       1.0  0.7502517400000001  0.50000002  0.4999999999999999  1.0000
  O   O20       1.0  0.50000001  0.7502517500000001  0.4999999799999998  1.0000
  O   O21       1.0  0.49999998  0.5  0.7502517399999998  1.0000
  O   O22       1.0  0.24974826  0.4999999800000001  0.5000000199999999  1.0000
  O   O23       1.0  0.49999999000000006  0.2497482600000001  0.50000003  1.0000
  O   O24       1.0  0.5000000000000001  0.5  0.2497482599999999  1.0000
