data_image0
_chemical_formula_structural       Ca6O14Ti4
_chemical_formula_sum              "Ca6 O14 Ti4"
_cell_length_a       5.462934454001761
_cell_length_b       5.5373461400000705
_cell_length_c       10.127855837844585
_cell_angle_alpha    89.99999945581573
_cell_angle_beta     105.64665670737817
_cell_angle_gamma    90.000000296059

_space_group_name_H-M_alt    "P 1"
_space_group_IT_number       1

loop_
  _space_group_symop_operation_xyz
  'x, y, z'

loop_
  _atom_site_type_symbol
  _atom_site_label
  _atom_site_symmetry_multiplicity
  _atom_site_fract_x
  _atom_site_fract_y
  _atom_site_fract_z
  _atom_site_occupancy
  Ca  Ca1       1.0  0.25605193  0.5431839299999999  1.6400000000000002e-06  1.0000
  Ca  Ca2       1.0  0.7439480700000001  0.04318393  0.9999983600000001  1.0000
  Ca  Ca3       1.0  0.9288479700000001  0.9569569500000001  0.37622551  1.0000
  Ca  Ca4       1.0  0.55260336  0.9569625599999999  0.6237777400000001  1.0000
  Ca  Ca5       1.0  0.07115204000000003  0.4569569099999999  0.62377449  1.0000
  Ca  Ca6       1.0  0.44739664000000007  0.4569625800000001  0.3762222599999999  1.0000
  O   O1        1.0  0.8276247  0.4819101099999999  0.9999966599999998  1.0000
  O   O2        1.0  0.1723753  0.9819101099999996  3.34e-06  1.0000
  O   O3        1.0  0.87805246  0.52491613  0.39611483  1.0000
  O   O4        1.0  0.4819295299999999  0.5249063499999999  0.60388508  1.0000
  O   O5        1.0  0.12194754000000002  0.02491615  0.60388517  1.0000
  O   O6        1.0  0.51807047  0.02490634  0.39611492  1.0000
  O   O7        1.0  0.6239970300000001  0.7940693899999999  0.16658541  1.0000
  O   O8        1.0  0.4573983199999999  0.7940720199999999  0.83340983  1.0000
  O   O9        1.0  0.37600296999999994  0.29406939  0.8334145899999998  1.0000
  O   O10       1.0  0.5426016799999999  0.2940720199999999  0.16659017  1.0000
  O   O11       1.0  0.15570855  0.71160417  0.22802629  1.0000
  O   O12       1.0  0.9276727799999998  0.71160504  0.77197457  1.0000
  O   O13       1.0  0.8442914399999999  0.21160415  0.7719737099999999  1.0000
  O   O14       1.0  0.07232723  0.21160504999999996  0.22802542  1.0000
  Ti  Ti1       1.0  0.34945875  0.9957077099999999  0.19977393  1.0000
  Ti  Ti2       1.0  0.14965841999999996  0.9957056499999999  0.80022783  1.0000
  Ti  Ti3       1.0  0.6505412599999999  0.4957077  0.8002260699999999  1.0000
  Ti  Ti4       1.0  0.85034159  0.4957056599999999  0.19977217  1.0000
