data_image0
_chemical_formula_structural       Al8Ca2O14
_chemical_formula_sum              "Al8 Ca2 O14"
_cell_length_a       5.494802282359246
_cell_length_b       7.883518973263446
_cell_length_c       7.8835189136530675
_cell_angle_alpha    69.34546934325466
_cell_angle_beta     76.6243888695757
_cell_angle_gamma    76.62439010623655

_space_group_name_H-M_alt    "P 1"
_space_group_IT_number       1

loop_
  _space_group_symop_operation_xyz
  'x, y, z'

loop_
  _atom_site_type_symbol
  _atom_site_label
  _atom_site_symmetry_multiplicity
  _atom_site_fract_x
  _atom_site_fract_y
  _atom_site_fract_z
  _atom_site_occupancy
  Al  Al1       1.0  0.19311655000000003  0.24853920999999998  0.07723522  1.0000
  Al  Al2       1.0  0.30688344999999995  0.92276478  0.7514607900000002  1.0000
  Al  Al3       1.0  0.8068834499999998  0.7514607800000004  0.9227647900000001  1.0000
  Al  Al4       1.0  0.69311655  0.07723522  0.24853921  1.0000
  Al  Al5       1.0  0.2578618500000001  0.56019064  0.68061967  1.0000
  Al  Al6       1.0  0.24213814000000003  0.3193803200000001  0.43980937  1.0000
  Al  Al7       1.0  0.7421381500000002  0.4398093599999999  0.31938033  1.0000
  Al  Al8       1.0  0.7578618600000002  0.6806196800000001  0.56019063  1.0000
  Ca  Ca1       1.0  0.2500000099999999  0.8043476700000001  0.19565234000000004  1.0000
  Ca  Ca2       1.0  0.7499999900000001  0.1956523300000001  0.80434766  1.0000
  O   O1        1.0  0.24999999999999997  0.5315699300000001  0.46843006  1.0000
  O   O2        1.0  0.7500000099999999  0.46843007000000003  0.53156994  1.0000
  O   O3        1.0  0.9256610899999999  0.17049969  0.06049522  1.0000
  O   O4        1.0  0.5743389000000001  0.93950477  0.8295003200000001  1.0000
  O   O5        1.0  0.07433890999999998  0.8295003100000004  0.9395047800000003  1.0000
  O   O6        1.0  0.42566109999999996  0.06049523  0.17049968  1.0000
  O   O7        1.0  0.35021373999999983  0.37168242  0.8643246800000001  1.0000
  O   O8        1.0  0.14978625  0.1356752999999999  0.62831758  1.0000
  O   O9        1.0  0.64978626  0.62831759  0.13567532  1.0000
  O   O10       1.0  0.85021376  0.8643247000000002  0.37168242  1.0000
  O   O11       1.0  0.9218893499999998  0.63816421  0.74825812  1.0000
  O   O12       1.0  0.5781106500000002  0.25174187  0.36183581  1.0000
  O   O13       1.0  0.07811065000000002  0.36183579  0.25174188  1.0000
  O   O14       1.0  0.4218893499999999  0.74825813  0.63816419  1.0000
