data_image0
_chemical_formula_structural       Sr4Fe4O11
_chemical_formula_sum              "Sr4 Fe4 O11"
_cell_length_a       5.51697619100001
_cell_length_b       6.761700867350598
_cell_length_c       6.761701748780519
_cell_angle_alpha    109.90399141172077
_cell_angle_beta     89.99999447614158
_cell_angle_gamma    90.0000046867848

_space_group_name_H-M_alt    "P 1"
_space_group_IT_number       1

loop_
  _space_group_symop_operation_xyz
  'x, y, z'

loop_
  _atom_site_type_symbol
  _atom_site_label
  _atom_site_symmetry_multiplicity
  _atom_site_fract_x
  _atom_site_fract_y
  _atom_site_fract_z
  _atom_site_occupancy
  Sr  Sr1       1.0  0.49999999000000017  0.5006092000000001  0.49937365  1.0000
  Sr  Sr2       1.0  0.5  0.001628210000000058  0.99837045  1.0000
  Sr  Sr3       1.0  1.0000000000000002  0.2569231900000001  0.74307877  1.0000
  Sr  Sr4       1.0  2.000000000000001e-08  0.7413737600000001  0.2586276599999999  1.0000
  Fe  Fe1       1.0  1.0  0.25356093  0.25499313  1.0000
  Fe  Fe2       1.0  0.9999999900000002  0.7450063100000001  0.7464388499999999  1.0000
  Fe  Fe3       1.0  0.50000001  0.001601539999999985  0.49692911  1.0000
  Fe  Fe4       1.0  0.50000001  0.5030739099999999  0.99839556  1.0000
  O   O1        1.0  0.99999998  0.4976357699999999  0.50236497  1.0000
  O   O2        1.0  0.5000001000000002  0.27043702000000003  0.7295636299999999  1.0000
  O   O3        1.0  0.49999991000000005  0.7274674599999998  0.2725326500000001  1.0000
  O   O4        1.0  0.23715310000000003  0.10115594999999997  0.3396246600000001  1.0000
  O   O5        1.0  0.23565878000000004  0.89521525  0.65640786  1.0000
  O   O6        1.0  0.7628481100000001  0.6603773500000001  0.8988460900000002  1.0000
  O   O7        1.0  0.7643402800000002  0.34359297999999994  0.10478735999999998  1.0000
  O   O8        1.0  0.76434115  0.8952151600000001  0.65640783  1.0000
  O   O9        1.0  0.7628469900000001  0.10115577000000009  0.3396245399999999  1.0000
  O   O10       1.0  0.23565965  0.3435929300000001  0.10478723  1.0000
  O   O11       1.0  0.23715194000000003  0.6603773000000001  0.89884598  1.0000
