data_image0
_chemical_formula_structural       Sr3Fe2O7
_chemical_formula_sum              "Sr3 Fe2 O7"
_cell_length_a       3.8877134232222605
_cell_length_b       3.8877130082203353
_cell_length_c       10.503429072382762
_cell_angle_alpha    100.65993829373646
_cell_angle_beta     100.65993731019383
_cell_angle_gamma    90.00544934183391

_space_group_name_H-M_alt    "P 1"
_space_group_IT_number       1

loop_
  _space_group_symop_operation_xyz
  'x, y, z'

loop_
  _atom_site_type_symbol
  _atom_site_label
  _atom_site_symmetry_multiplicity
  _atom_site_fract_x
  _atom_site_fract_y
  _atom_site_fract_z
  _atom_site_occupancy
  Sr  Sr1       1.0  0.49999988000000006  0.49999988000000006  0.99999975  1.0000
  Sr  Sr2       1.0  0.6827991099999999  0.6827991600000001  0.36555632  1.0000
  Sr  Sr3       1.0  0.31720063  0.31720059000000006  0.6344431799999999  1.0000
  Fe  Fe1       1.0  0.9029515099999998  0.90295147  0.8059651699999999  1.0000
  Fe  Fe2       1.0  0.09704824999999999  0.09704829  0.19403434  1.0000
  O   O1        1.0  0.40428488999999995  0.9043441199999999  0.80873131  1.0000
  O   O2        1.0  0.9043441800000002  0.40428485  0.80873132  1.0000
  O   O3        1.0  0.5957148599999998  0.09565566  0.1912682  1.0000
  O   O4        1.0  0.09565559999999998  0.5957148999999999  0.19126819  1.0000
  O   O5        1.0  0.80679477  0.8067947200000001  0.61381239  1.0000
  O   O6        1.0  0.19320495999999998  0.19320501  0.38618709  1.0000
  O   O7        1.0  0.99999988  0.9999998700000001  0.9999997599999999  1.0000
