data_image0
_chemical_formula_structural       La16O40Ti8
_chemical_formula_sum              "La16 O40 Ti8"
_cell_length_a       11.137355473004602
_cell_length_b       11.651385663001074
_cell_length_c       7.9199148460029045
_cell_angle_alpha    89.99999972609724
_cell_angle_beta     89.99999999892638
_cell_angle_gamma    90.00001205006868

_space_group_name_H-M_alt    "P 1"
_space_group_IT_number       1

loop_
  _space_group_symop_operation_xyz
  'x, y, z'

loop_
  _atom_site_type_symbol
  _atom_site_label
  _atom_site_symmetry_multiplicity
  _atom_site_fract_x
  _atom_site_fract_y
  _atom_site_fract_z
  _atom_site_occupancy
  La  La1       1.0  0.79726481  0.69055639  0.0  1.0000
  La  La2       1.0  0.29726529  0.3094428399999999  0.9999999999999998  1.0000
  La  La3       1.0  0.7972688000000001  0.6905661600000002  0.49999999999999983  1.0000
  La  La4       1.0  0.2972691700000001  0.30943314  0.49999999999999994  1.0000
  La  La5       1.0  0.023749599999999996  0.19056896000000004  0.24999966  1.0000
  La  La6       1.0  0.023749599999999996  0.19056896000000004  0.75000034  1.0000
  La  La7       1.0  0.5237500499999999  0.8094318700000002  0.7500002899999998  1.0000
  La  La8       1.0  0.5237500499999999  0.80943187  0.24999970999999999  1.0000
  La  La9       1.0  0.7589144200000001  0.03379242  0.49999999999999983  1.0000
  La  La10      1.0  0.25891357  0.9662069300000002  0.49999999999999983  1.0000
  La  La11      1.0  0.06212591  0.5337941599999999  0.2500032899999999  1.0000
  La  La12      1.0  0.06212591  0.53379417  0.74999671  1.0000
  La  La13      1.0  0.56212521  0.46620643999999994  0.74999669  1.0000
  La  La14      1.0  0.56212522  0.46620643999999994  0.2500032999999999  1.0000
  La  La15      1.0  0.25891601  0.96621139  0.9999999999999998  1.0000
  La  La16      1.0  0.75891664  0.03378801  0.0  1.0000
  O   O1        1.0  0.88587616  0.21597829000000002  0.49999999999999983  1.0000
  O   O2        1.0  0.38587691  0.7840222800000001  0.49999999999999983  1.0000
  O   O3        1.0  0.9351368  0.7159714599999999  0.24999697999999998  1.0000
  O   O4        1.0  0.9351367999999998  0.7159714599999999  0.7500030199999999  1.0000
  O   O5        1.0  0.4351375  0.28402799  0.7500030199999999  1.0000
  O   O6        1.0  0.4351375  0.28402799  0.24999697999999998  1.0000
  O   O7        1.0  0.8858698699999998  0.21598017000000003  0.9999999999999998  1.0000
  O   O8        1.0  0.3858706200000001  0.78402041  0.9999999999999998  1.0000
  O   O9        1.0  0.12737032  0.9161386899999999  0.7500037799999999  1.0000
  O   O10       1.0  0.12737032  0.9161386899999999  0.24999623999999998  1.0000
  O   O11       1.0  0.6273699299999999  0.08385859  0.24999624999999998  1.0000
  O   O12       1.0  0.6273699299999999  0.08385859  0.75000375  1.0000
  O   O13       1.0  0.69367535  0.41615419  0.49999999999999994  1.0000
  O   O14       1.0  0.19367497  0.58384838  0.49999999999999983  1.0000
  O   O15       1.0  0.6936880699999999  0.41619347000000007  0.99999999  1.0000
  O   O16       1.0  0.19368776  0.583809  0.0  1.0000
  O   O17       1.0  0.4244103699999999  0.12672424  0.9999999999999998  1.0000
  O   O18       1.0  0.92441037  0.8732752499999998  0.0  1.0000
  O   O19       1.0  0.9244156  0.8732750200000002  0.49999999999999983  1.0000
  O   O20       1.0  0.42441557  0.1267245  0.49999999999999994  1.0000
  O   O21       1.0  0.8966205  0.37328753000000003  0.7499997599999999  1.0000
  O   O22       1.0  0.8966205  0.37328753000000003  0.2500002299999999  1.0000
  O   O23       1.0  0.39662059999999993  0.6267130299999999  0.25000023  1.0000
  O   O24       1.0  0.3966205999999999  0.6267130299999999  0.7499997599999999  1.0000
  O   O25       1.0  0.65231538  0.8525842900000002  0.49999999999999983  1.0000
  O   O26       1.0  0.15231471  0.14741542  0.49999999999999983  1.0000
  O   O27       1.0  0.66869316  0.6474221399999999  0.2500069  1.0000
  O   O28       1.0  0.66869316  0.6474221399999999  0.74999309  1.0000
  O   O29       1.0  0.16869369  0.35257814000000004  0.74999309  1.0000
  O   O30       1.0  0.16869369  0.35257814000000004  0.25000690999999997  1.0000
  O   O31       1.0  0.6523151000000001  0.85257616  0.9999999999999998  1.0000
  O   O32       1.0  0.15231447  0.14742358  0.9999999999999998  1.0000
  O   O33       1.0  0.93679721  0.5199101700000001  0.49999999999999983  1.0000
  O   O34       1.0  0.4367962  0.48008986000000003  0.49999998999999995  1.0000
  O   O35       1.0  0.3842412599999999  0.9800987699999999  0.25000103  1.0000
  O   O36       1.0  0.3842412599999999  0.9800987699999999  0.7499989699999998  1.0000
  O   O37       1.0  0.8842423  0.019901210000000003  0.7499990099999999  1.0000
  O   O38       1.0  0.8842422999999999  0.019901210000000003  0.2500009899999999  1.0000
  O   O39       1.0  0.93681047  0.51990886  0.9999999999999998  1.0000
  O   O40       1.0  0.4368095  0.48009118000000006  0.9999999999999998  1.0000
  Ti  Ti1       1.0  0.97021779  0.8766824199999999  0.24999824  1.0000
  Ti  Ti2       1.0  0.9702178  0.8766824199999999  0.7500017999999998  1.0000
  Ti  Ti3       1.0  0.47021773  0.12331677000000002  0.7500017199999999  1.0000
  Ti  Ti4       1.0  0.47021774  0.12331676  0.24999827999999996  1.0000
  Ti  Ti5       1.0  0.35082313  0.6233075499999999  0.50000001  1.0000
  Ti  Ti6       1.0  0.8508230600000001  0.3766933000000002  0.5000000099999999  1.0000
  Ti  Ti7       1.0  0.8508278199999999  0.37669873  0.9999999999999998  1.0000
  Ti  Ti8       1.0  0.35082788  0.6233020999999999  1e-08  1.0000
