data_image0
_chemical_formula_structural       Mg4Nb8O24
_chemical_formula_sum              "Mg4 Nb8 O24"
_cell_length_a       14.423851886000454
_cell_length_b       5.813833644000088
_cell_length_c       5.144648696000009
_cell_angle_alpha    89.99999412414655
_cell_angle_beta     90.00000674233222
_cell_angle_gamma    90.00000429442349

_space_group_name_H-M_alt    "P 1"
_space_group_IT_number       1

loop_
  _space_group_symop_operation_xyz
  'x, y, z'

loop_
  _atom_site_type_symbol
  _atom_site_label
  _atom_site_symmetry_multiplicity
  _atom_site_fract_x
  _atom_site_fract_y
  _atom_site_fract_z
  _atom_site_occupancy
  Mg  Mg1       1.0  1.0999999999999999e-07  0.8390929  0.7500001599999999  1.0000
  Mg  Mg2       1.0  0.49999985  0.6609072500000001  0.24999987999999998  1.0000
  Mg  Mg3       1.0  9.999999999999998e-08  0.16090702  0.24999984999999997  1.0000
  Mg  Mg4       1.0  0.49999985999999996  0.33909283  0.7500000800000001  1.0000
  Nb  Nb1       1.0  0.15973479  0.67863079  0.25555086999999993  1.0000
  Nb  Nb2       1.0  0.3402652099999998  0.8213692699999999  0.75555089  1.0000
  Nb  Nb3       1.0  0.6597347300000002  0.82136913  0.7444490800000001  1.0000
  Nb  Nb4       1.0  0.8402652600000001  0.6786307699999999  0.2444491100000001  1.0000
  Nb  Nb5       1.0  0.8402652700000001  0.32136912999999995  0.7444491000000001  1.0000
  Nb  Nb6       1.0  0.6597347199999999  0.17863081000000003  0.24444906999999996  1.0000
  Nb  Nb7       1.0  0.34026520999999993  0.17863082000000002  0.25555089  1.0000
  Nb  Nb8       1.0  0.15973479  0.3213692799999999  0.7555508500000001  1.0000
  O   O1        1.0  0.09517126999999999  0.6077918399999998  0.9271307  1.0000
  O   O2        1.0  0.4048287300000001  0.8922082199999999  0.42713075000000006  1.0000
  O   O3        1.0  0.5951712599999999  0.89220812  0.07286943  1.0000
  O   O4        1.0  0.90482876  0.6077918299999999  0.57286949  1.0000
  O   O5        1.0  0.90482876  0.3922080999999999  0.07286948  1.0000
  O   O6        1.0  0.5951712599999999  0.10779183  0.57286944  1.0000
  O   O7        1.0  0.4048287199999999  0.10779186  0.9271307499999999  1.0000
  O   O8        1.0  0.09517126  0.3922081999999999  0.42713067999999993  1.0000
  O   O9        1.0  0.07851426  0.88360519  0.4104661499999999  1.0000
  O   O10       1.0  0.42148576  0.61639485  0.9104662000000002  1.0000
  O   O11       1.0  0.5785142300000001  0.61639463  0.5895336800000001  1.0000
  O   O12       1.0  0.92148578  0.8836053199999998  0.08953366999999998  1.0000
  O   O13       1.0  0.92148577  0.11639461  0.5895337  1.0000
  O   O14       1.0  0.57851422  0.38360535  0.08953366  1.0000
  O   O15       1.0  0.42148575  0.38360523  0.41046618999999995  1.0000
  O   O16       1.0  0.07851424999999998  0.11639483  0.9104661800000001  1.0000
  O   O17       1.0  0.25619122999999994  0.8767106299999999  0.08343663999999999  1.0000
  O   O18       1.0  0.24380876999999998  0.6232894600000001  0.58343666  1.0000
  O   O19       1.0  0.75619123  0.6232893299999999  0.91656336  1.0000
  O   O20       1.0  0.7438087800000001  0.8767105599999999  0.41656336  1.0000
  O   O21       1.0  0.7438087799999998  0.12328935000000002  0.91656336  1.0000
  O   O22       1.0  0.7561912400000002  0.3767105699999999  0.4165633500000001  1.0000
  O   O23       1.0  0.24380878  0.37671063999999993  0.08343665  1.0000
  O   O24       1.0  0.25619122999999994  0.12328947000000001  0.58343665  1.0000
