data_image0
_chemical_formula_structural       Sr14Mn8O30
_chemical_formula_sum              "Sr14 Mn8 O30"
_cell_length_a       6.881835816663268
_cell_length_b       9.745077731945827
_cell_length_c       10.529610926584175
_cell_angle_alpha    90.00876650300317
_cell_angle_beta     91.66721114370654
_cell_angle_gamma    90.00270370519925

_space_group_name_H-M_alt    "P 1"
_space_group_IT_number       1

loop_
  _space_group_symop_operation_xyz
  'x, y, z'

loop_
  _atom_site_type_symbol
  _atom_site_label
  _atom_site_symmetry_multiplicity
  _atom_site_fract_x
  _atom_site_fract_y
  _atom_site_fract_z
  _atom_site_occupancy
  Sr  Sr1       1.0  0.9994810399999999  0.3131173300000001  0.96553979  1.0000
  Sr  Sr2       1.0  0.9989984300000001  0.1864385  0.46547602999999993  1.0000
  Sr  Sr3       1.0  0.0010111199999999953  0.8141546299999999  0.5346010599999999  1.0000
  Sr  Sr4       1.0  0.00101062  0.6857004800000001  0.03469192  1.0000
  Sr  Sr5       1.0  0.3517051999999999  0.35001798  0.69653378  1.0000
  Sr  Sr6       1.0  0.35254409000000003  0.15013081  0.19632652999999997  1.0000
  Sr  Sr7       1.0  0.6483576199999999  0.85134897  0.80351453  1.0000
  Sr  Sr8       1.0  0.6482945700000001  0.6488402699999999  0.30370338  1.0000
  Sr  Sr9       1.0  0.49821779  0.50217411  0.99865102  1.0000
  Sr  Sr10      1.0  0.49887216000000006  0.9999058  0.4996706799999999  1.0000
  Sr  Sr11      1.0  0.17952446  0.4962490399999999  0.33181388  1.0000
  Sr  Sr12      1.0  0.17880556  0.00247594  0.83114209  1.0000
  Sr  Sr13      1.0  0.82244042  0.99478785  0.17141206999999997  1.0000
  Sr  Sr14      1.0  0.8220362100000002  0.50451093  0.67056724  1.0000
  Mn  Mn1       1.0  0.57735112  0.3335075399999999  0.42684000000000005  1.0000
  Mn  Mn2       1.0  0.5772551200000001  0.16684228  0.92596573  1.0000
  Mn  Mn3       1.0  0.42281711000000005  0.8345190899999999  0.07385949  1.0000
  Mn  Mn4       1.0  0.42302962000000005  0.6659555299999999  0.57398382  1.0000
  Mn  Mn5       1.0  0.7798724300000001  0.3311125799999999  0.21978924  1.0000
  Mn  Mn6       1.0  0.77960521  0.16931468000000002  0.72064531  1.0000
  Mn  Mn7       1.0  0.22042194  0.8301046899999999  0.27909336  1.0000
  Mn  Mn8       1.0  0.21998119999999996  0.66954991  0.7789183100000001  1.0000
  O   O1        1.0  0.5074346  0.39690286  0.25354157  1.0000
  O   O2        1.0  0.50612895  0.10276903  0.75304788  1.0000
  O   O3        1.0  0.4926095200000001  0.8991348200000001  0.24595140999999998  1.0000
  O   O4        1.0  0.49264199  0.60093781  0.7461481200000001  1.0000
  O   O5        1.0  0.6812373900000002  0.32535436000000006  0.8391015900000001  1.0000
  O   O6        1.0  0.68081737  0.17482187  0.33924156000000005  1.0000
  O   O7        1.0  0.3207283499999999  0.8254039299999999  0.66198701  1.0000
  O   O8        1.0  0.32134443  0.6744934499999999  0.16195658999999998  1.0000
  O   O9        1.0  0.33897696000000005  0.25209365  0.45520303999999995  1.0000
  O   O10       1.0  0.34094735000000004  0.2499765499999999  0.95551739  1.0000
  O   O11       1.0  0.6637463499999999  0.7568298799999998  0.04617305  1.0000
  O   O12       1.0  0.6632077299999999  0.7446576799999999  0.5464404900000001  1.0000
  O   O13       1.0  0.83812122  0.4190716899999999  0.38208778  1.0000
  O   O14       1.0  0.8377031300000001  0.08035309  0.88190304  1.0000
  O   O15       1.0  0.16044785000000003  0.9175658199999999  0.11724743999999998  1.0000
  O   O16       1.0  0.16061444  0.58199077  0.61692064  1.0000
  O   O17       1.0  0.68882203  0.28095908  0.58445446  1.0000
  O   O18       1.0  0.6907928500000001  0.21588548000000002  0.08507909  1.0000
  O   O19       1.0  0.3143568799999999  0.7765744099999998  0.9167669000000002  1.0000
  O   O20       1.0  0.31473945  0.72260892  0.41665981999999996  1.0000
  O   O21       1.0  0.4968294600000001  0.49982189000000005  0.4988217700000001  1.0000
  O   O22       1.0  0.4932344000000001  0.00084887  0.9978095299999998  1.0000
  O   O23       1.0  0.8345932300000001  0.48108581  0.11909508999999999  1.0000
  O   O24       1.0  0.8363072200000001  0.01884853  0.6203761300000001  1.0000
  O   O25       1.0  0.1586996  0.9811697999999999  0.3774303900000001  1.0000
  O   O26       1.0  0.15821603000000004  0.51852146  0.8770930800000001  1.0000
  O   O27       1.0  0.02985631  0.2568961  0.21195837999999997  1.0000
  O   O28       1.0  0.02897901  0.24419967999999992  0.7123572999999999  1.0000
  O   O29       1.0  0.9732868  0.7517408199999999  0.2885256500000001  1.0000
  O   O30       1.0  0.9729462200000002  0.74772315  0.78830557  1.0000
