data_image0
_chemical_formula_structural       In4Mn2O8
_chemical_formula_sum              "In4 Mn2 O8"
_cell_length_a       6.474159232807968
_cell_length_b       6.474159182603387
_cell_length_c       6.474159345237942
_cell_angle_alpha    59.99999429874282
_cell_angle_beta     59.999994114481694
_cell_angle_gamma    59.9999937531852

_space_group_name_H-M_alt    "P 1"
_space_group_IT_number       1

loop_
  _space_group_symop_operation_xyz
  'x, y, z'

loop_
  _atom_site_type_symbol
  _atom_site_label
  _atom_site_symmetry_multiplicity
  _atom_site_fract_x
  _atom_site_fract_y
  _atom_site_fract_z
  _atom_site_occupancy
  In  In1       1.0  0.6250001299999998  0.62500012  0.1249996900000001  1.0000
  In  In2       1.0  0.6250001199999999  0.6250001299999997  0.6250001300000002  1.0000
  In  In3       1.0  0.6250001299999998  0.1249996999999998  0.6250001300000003  1.0000
  In  In4       1.0  0.12499968999999968  0.62500012  0.6250001200000003  1.0000
  Mn  Mn1       1.0  6e-08  6e-08  7e-08  1.0000
  Mn  Mn2       1.0  0.24999996999999985  0.24999997  0.24999997  1.0000
  O   O1        1.0  0.8665821599999999  0.8665821499999997  0.8665821500000003  1.0000
  O   O2        1.0  0.8665821699999999  0.8665821599999998  0.4002536900000002  1.0000
  O   O3        1.0  0.8665821699999998  0.40025368999999983  0.8665821700000002  1.0000
  O   O4        1.0  0.4002536799999999  0.8665821699999997  0.8665821700000005  1.0000
  O   O5        1.0  0.8497447699999999  0.3834184199999999  0.38341842000000026  1.0000
  O   O6        1.0  0.38341840999999977  0.8497447700000001  0.38341842000000026  1.0000
  O   O7        1.0  0.38341841999999976  0.3834184199999997  0.8497447600000003  1.0000
  O   O8        1.0  0.3834184099999998  0.3834184099999999  0.3834184200000001  1.0000
