data_image0
_chemical_formula_structural       Fe4Mn2O8
_chemical_formula_sum              "Fe4 Mn2 O8"
_cell_length_a       6.098887515824689
_cell_length_b       6.098893146507182
_cell_length_c       6.069759930458333
_cell_angle_alpha    60.15783330604527
_cell_angle_beta     60.15791191576951
_cell_angle_gamma    59.68425382273548

_space_group_name_H-M_alt    "P 1"
_space_group_IT_number       1

loop_
  _space_group_symop_operation_xyz
  'x, y, z'

loop_
  _atom_site_type_symbol
  _atom_site_label
  _atom_site_symmetry_multiplicity
  _atom_site_fract_x
  _atom_site_fract_y
  _atom_site_fract_z
  _atom_site_occupancy
  Fe  Fe1       1.0  0.6215727600000001  0.62157267  0.13178212  1.0000
  Fe  Fe2       1.0  0.6215724300000001  0.62157253  0.6250728600000001  1.0000
  Fe  Fe3       1.0  0.6249274000000002  0.11821793999999998  0.62842735  1.0000
  Fe  Fe4       1.0  0.11821785  0.6249274000000001  0.6284273000000001  1.0000
  Mn  Mn1       1.0  0.9982575099999997  0.99825747  0.0017427600000001003  1.0000
  Mn  Mn2       1.0  0.24825733  0.24825732999999992  0.2517425600000001  1.0000
  O   O1        1.0  0.86406231  0.8640629400000001  0.86141289  1.0000
  O   O2        1.0  0.8640628499999997  0.8640622399999999  0.41046213  1.0000
  O   O3        1.0  0.8665187700000002  0.4139536099999999  0.8597637500000003  1.0000
  O   O4        1.0  0.41395366  0.86651876  0.8597639400000002  1.0000
  O   O5        1.0  0.83953789  0.38858714999999994  0.3859372100000002  1.0000
  O   O6        1.0  0.38858716000000026  0.83953792  0.38593781  1.0000
  O   O7        1.0  0.3902361200000002  0.3902362999999999  0.8360463399999999  1.0000
  O   O8        1.0  0.39023626000000006  0.39023604  0.3834812800000001  1.0000
