data_image0
_chemical_formula_structural       Fe4Ni2O8
_chemical_formula_sum              "Fe4 Ni2 O8"
_cell_length_a       5.980990291370395
_cell_length_b       5.981062096370982
_cell_length_c       6.042275096547813
_cell_angle_alpha    59.660472898708726
_cell_angle_beta     59.66080099088677
_cell_angle_gamma    60.678666346302656

_space_group_name_H-M_alt    "P 1"
_space_group_IT_number       1

loop_
  _space_group_symop_operation_xyz
  'x, y, z'

loop_
  _atom_site_type_symbol
  _atom_site_label
  _atom_site_symmetry_multiplicity
  _atom_site_fract_x
  _atom_site_fract_y
  _atom_site_fract_z
  _atom_site_occupancy
  Fe  Fe1       1.0  0.6232892599999997  0.6232889799999998  0.1300095800000001  1.0000
  Fe  Fe2       1.0  0.6232883800000001  0.6232889499999998  0.6234128200000001  1.0000
  Fe  Fe3       1.0  0.6265877500000001  0.11998905999999988  0.62671175  1.0000
  Fe  Fe4       1.0  0.11999152000000016  0.6265875099999998  0.62671022  1.0000
  Ni  Ni1       1.0  0.0043409800000001955  0.004345209999999921  0.99565698  1.0000
  Ni  Ni2       1.0  0.25434379  0.2543422499999998  0.24565718999999997  1.0000
  O   O1        1.0  0.8678415399999997  0.86783413  0.8634763799999999  1.0000
  O   O2        1.0  0.8678371999999996  0.8678380599999996  0.4008481800000001  1.0000
  O   O3        1.0  0.8491515899999997  0.3865226299999999  0.3821649400000001  1.0000
  O   O4        1.0  0.38652446999999995  0.8491521399999999  0.3821596400000001  1.0000
  O   O5        1.0  0.8552047899999999  0.4082011899999997  0.8682995600000003  1.0000
  O   O6        1.0  0.40819370999999993  0.8552080299999998  0.86829658  1.0000
  O   O7        1.0  0.38170511  0.38169842  0.8418029399999999  1.0000
  O   O8        1.0  0.38170020000000005  0.38170374999999984  0.39479354  1.0000
