data_image0
_chemical_formula_structural       Mg4O12Ce4
_chemical_formula_sum              "Mg4 O12 Ce4"
_cell_length_a       5.6601376010003825
_cell_length_b       8.48395798400071
_cell_length_c       5.67578821400086
_cell_angle_alpha    90.00004686434936
_cell_angle_beta     89.99995781640858
_cell_angle_gamma    89.99999975697477

_space_group_name_H-M_alt    "P 1"
_space_group_IT_number       1

loop_
  _space_group_symop_operation_xyz
  'x, y, z'

loop_
  _atom_site_type_symbol
  _atom_site_label
  _atom_site_symmetry_multiplicity
  _atom_site_fract_x
  _atom_site_fract_y
  _atom_site_fract_z
  _atom_site_occupancy
  Mg  Mg1       1.0  0.022624730000000003  0.2500002800000001  0.01575897  1.0000
  Mg  Mg2       1.0  0.4773748500000001  0.2500002800000001  0.51575874  1.0000
  Mg  Mg3       1.0  0.9773752500000001  0.74999971  0.9842410400000001  1.0000
  Mg  Mg4       1.0  0.5226251600000001  0.74999972  0.48424129  1.0000
  O   O1        1.0  0.3552637699999999  0.25000004  0.8650921000000001  1.0000
  O   O2        1.0  0.14473628000000002  0.25000004  0.36509202  1.0000
  O   O3        1.0  0.6447361999999999  0.7499999699999998  0.13490787  1.0000
  O   O4        1.0  0.8552637699999999  0.7499999500000001  0.6349079400000001  1.0000
  O   O5        1.0  0.15564221  0.9197963200000001  0.15977326  1.0000
  O   O6        1.0  0.3443577  0.5802035  0.6597734200000002  1.0000
  O   O7        1.0  0.34435773000000003  0.9197963199999999  0.65977337  1.0000
  O   O8        1.0  0.8443577499999999  0.41979651  0.8402266900000002  1.0000
  O   O9        1.0  0.8443577500000001  0.08020368  0.8402267500000001  1.0000
  O   O10       1.0  0.65564232  0.4197965  0.34022657  1.0000
  O   O11       1.0  0.6556423  0.0802037  0.34022663  1.0000
  O   O12       1.0  0.15564225  0.58020348  0.1597733  1.0000
  Ce  Ce1       1.0  0.49999998  1e-08  3e-08  1.0000
  Ce  Ce2       1.0  1.9999999999999964e-08  0.49999998999999995  0.5  1.0000
  Ce  Ce3       1.0  0.99999999  0.9999999999999999  0.5000000000000001  1.0000
  Ce  Ce4       1.0  0.49999998999999995  0.49999999999999994  0.0  1.0000
