data_image0
_chemical_formula_structural       O24Mn6Ba8Pr2
_chemical_formula_sum              "O24 Mn6 Ba8 Pr2"
_cell_length_a       10.189968248759039
_cell_length_b       5.883775623175481
_cell_length_c       10.278809958199567
_cell_angle_alpha    89.99999715707179
_cell_angle_beta     109.30864952357645
_cell_angle_gamma    90.00000028665586

_space_group_name_H-M_alt    "P 1"
_space_group_IT_number       1

loop_
  _space_group_symop_operation_xyz
  'x, y, z'

loop_
  _atom_site_type_symbol
  _atom_site_label
  _atom_site_symmetry_multiplicity
  _atom_site_fract_x
  _atom_site_fract_y
  _atom_site_fract_z
  _atom_site_occupancy
  O   O1        1.0  0.8954268399999998  0.5000000600000001  0.6258613399999998  1.0000
  O   O2        1.0  0.39542659  9e-08  0.6258608499999999  1.0000
  O   O3        1.0  0.10457365999999998  0.4999999  0.374138  1.0000
  O   O4        1.0  0.60457344  0.99999991  0.3741375499999999  1.0000
  O   O5        1.0  0.61524071  0.7804439  0.6261733799999998  1.0000
  O   O6        1.0  0.11524108000000009  0.7195562599999998  0.62617387  1.0000
  O   O7        1.0  0.1152410000000001  0.2804436900000001  0.62617393  1.0000
  O   O8        1.0  0.6152407799999999  0.21955604  0.62617333  1.0000
  O   O9        1.0  0.38475825  0.78044274  0.37382502  1.0000
  O   O10       1.0  0.8847586300000001  0.7195569700000001  0.37382549  1.0000
  O   O11       1.0  0.8847585500000001  0.2804431100000001  0.37382555  1.0000
  O   O12       1.0  0.38475832  0.21955731  0.3738249599999999  1.0000
  O   O13       1.0  0.04334689999999997  0.7347780999999999  0.8655455599999998  1.0000
  O   O14       1.0  0.04334683  0.26522233  0.8655457499999999  1.0000
  O   O15       1.0  0.54334642  0.76522159  0.8655460499999998  1.0000
  O   O16       1.0  0.5433464800000001  0.23477873999999993  0.8655459099999999  1.0000
  O   O17       1.0  0.95665354  0.7347770500000002  0.13445501  1.0000
  O   O18       1.0  0.95665347  0.2652225400000002  0.13445518  1.0000
  O   O19       1.0  0.45665298  0.7652234199999998  0.13445552  1.0000
  O   O20       1.0  0.45665304000000007  0.23477625  0.13445539  1.0000
  O   O21       1.0  0.77828411  0.9999999799999999  0.8663238799999999  1.0000
  O   O22       1.0  0.27828319000000007  0.5  0.8663235999999999  1.0000
  O   O23       1.0  0.22171796  1.0000000000000002e-08  0.13367754  1.0000
  O   O24       1.0  0.72171729  0.5000000200000001  0.13367732999999998  1.0000
  Mn  Mn1       1.0  5.70000000017516e-07  0.49999999  0.5000022  1.0000
  Mn  Mn2       1.0  0.5000015700000001  2e-08  0.50000437  1.0000
  Mn  Mn3       1.0  0.08669797  0.5000000500000001  0.7607033499999999  1.0000
  Mn  Mn4       1.0  0.58669804  7e-08  0.7607030799999999  1.0000
  Mn  Mn5       1.0  0.91330123  0.49999994  0.23929506  1.0000
  Mn  Mn6       1.0  0.41330149000000005  0.9999999699999998  0.23929489  1.0000
  Ba  Ba1       1.0  0.8694642  2.0000000099999992e-08  0.60856806  1.0000
  Ba  Ba2       1.0  0.3694646200000001  0.50000001  0.60856819  1.0000
  Ba  Ba3       1.0  0.63053616  0.49999999  0.3914329599999999  1.0000
  Ba  Ba4       1.0  0.13053575  1.0  0.3914327899999999  1.0000
  Ba  Ba5       1.0  0.78193722  0.50000003  0.8461934199999999  1.0000
  Ba  Ba6       1.0  0.28193769  2.999999999999999e-08  0.8461933199999999  1.0000
  Ba  Ba7       1.0  0.21806215999999998  0.49999996  0.15380598  1.0000
  Ba  Ba8       1.0  0.71806259  0.9999999699999998  0.15380582  1.0000
  Pr  Pr1       1.0  0.9999981900000002  2.0000000000000017e-08  0.9999985599999999  1.0000
  Pr  Pr2       1.0  0.50000048  0.4999999399999999  0.99999794  1.0000
