data_image0
_chemical_formula_structural       Mn2Ba2O6
_chemical_formula_sum              "Mn2 Ba2 O6"
_cell_length_a       5.791907225937039
_cell_length_b       5.791907084000008
_cell_length_c       4.911144659
_cell_angle_alpha    89.99999966849872
_cell_angle_beta     89.99999999073415
_cell_angle_gamma    120.0000052434418

_space_group_name_H-M_alt    "P 1"
_space_group_IT_number       1

loop_
  _space_group_symop_operation_xyz
  'x, y, z'

loop_
  _atom_site_type_symbol
  _atom_site_label
  _atom_site_symmetry_multiplicity
  _atom_site_fract_x
  _atom_site_fract_y
  _atom_site_fract_z
  _atom_site_occupancy
  Mn  Mn1       1.0  0.0  0.0  1.0  1.0000
  Mn  Mn2       1.0  0.0  0.9999999999999998  0.5  1.0000
  Ba  Ba1       1.0  0.33333333  0.66666666  0.74999993  1.0000
  Ba  Ba2       1.0  0.6666666599999999  0.33333333  0.25000008  1.0000
  O   O1        1.0  0.14846193  0.29692388  0.25  1.0000
  O   O2        1.0  0.29692387  0.14846193  0.7499999800000001  1.0000
  O   O3        1.0  0.8515380700000003  0.7030761199999999  0.74999999  1.0000
  O   O4        1.0  0.8515380600000001  0.14846194  0.74999999  1.0000
  O   O5        1.0  0.70307613  0.85153808  0.25000002  1.0000
  O   O6        1.0  0.14846194000000001  0.8515380600000001  0.25000001  1.0000
