data_image0
_chemical_formula_structural       Mn7O12La
_chemical_formula_sum              "Mn7 O12 La1"
_cell_length_a       6.501256278817033
_cell_length_b       6.501303048099832
_cell_length_c       6.620911925303893
_cell_angle_alpha    108.77362301741177
_cell_angle_beta     108.82735237130582
_cell_angle_gamma    110.09599571813175

_space_group_name_H-M_alt    "P 1"
_space_group_IT_number       1

loop_
  _space_group_symop_operation_xyz
  'x, y, z'

loop_
  _atom_site_type_symbol
  _atom_site_label
  _atom_site_symmetry_multiplicity
  _atom_site_fract_x
  _atom_site_fract_y
  _atom_site_fract_z
  _atom_site_occupancy
  Mn  Mn1       1.0  0.5  0.5000000400000001  4.999999999999999e-08  1.0000
  Mn  Mn2       1.0  9.999999981310706e-09  0.4999999800000001  0.4999999800000001  1.0000
  Mn  Mn3       1.0  0.50000006  0.9999998700000002  0.50000001  1.0000
  Mn  Mn4       1.0  0.9999999300000001  0.9999999800000001  0.50000004  1.0000
  Mn  Mn5       1.0  0.50000011  0.5000001  0.50000003  1.0000
  Mn  Mn6       1.0  0.99999997  0.49999996  0.99999995  1.0000
  Mn  Mn7       1.0  0.49999998  0.9999999900000002  0.99999999  1.0000
  O   O1        1.0  0.69417785  0.16760231  0.86177687  1.0000
  O   O2        1.0  0.30582213  0.8323977000000001  0.1382231400000001  1.0000
  O   O3        1.0  0.68690191  0.8215756300000001  0.50848178  1.0000
  O   O4        1.0  0.31309802999999997  0.1784244  0.49151819  1.0000
  O   O5        1.0  0.19115483  0.4891196800000001  0.32886909  1.0000
  O   O6        1.0  0.1602628800000001  0.8622866500000003  0.67111843  1.0000
  O   O7        1.0  0.8088452099999998  0.51088033  0.67113088  1.0000
  O   O8        1.0  0.8397372100000001  0.13771338  0.32888153  1.0000
  O   O9        1.0  0.13826255000000007  0.32646261  0.84567764  1.0000
  O   O10       1.0  0.4807881199999998  0.2925841200000001  0.15432094  1.0000
  O   O11       1.0  0.8617374300000001  0.6735373700000001  0.15432233  1.0000
  O   O12       1.0  0.51921181  0.70741585  0.8456790300000001  1.0000
  La  La1       1.0  0.9999999899999997  2.99999999e-08  4.999999999999999e-08  1.0000
