data_image0
_chemical_formula_structural       SrFeO2
_chemical_formula_sum              "Sr1 Fe1 O2"
_cell_length_a       4.037769931000123
_cell_length_b       4.037770523000074
_cell_length_c       3.5020441510000144
_cell_angle_alpha    89.99999940936937
_cell_angle_beta     89.99999248434483
_cell_angle_gamma    90.0000250452715

_space_group_name_H-M_alt    "P 1"
_space_group_IT_number       1

loop_
  _space_group_symop_operation_xyz
  'x, y, z'

loop_
  _atom_site_type_symbol
  _atom_site_label
  _atom_site_symmetry_multiplicity
  _atom_site_fract_x
  _atom_site_fract_y
  _atom_site_fract_z
  _atom_site_occupancy
  Sr  Sr1       1.0  0.49999996000000013  0.5000000500000001  0.50000001  1.0000
  Fe  Fe1       1.0  1.0000000000000004e-08  3e-08  0.9999999999999999  1.0000
  O   O1        1.0  2.0000000000000014e-08  0.4999999500000001  0.99999988  1.0000
  O   O2        1.0  0.5000000000000001  0.99999997  1.0999999999999999e-07  1.0000
