data_image0
_chemical_formula_structural       Ba3O9Y4
_chemical_formula_sum              "Ba3 O9 Y4"
_cell_length_a       6.211827098095321
_cell_length_b       6.21184796631329
_cell_length_c       9.389844440810158
_cell_angle_alpha    70.68690771804657
_cell_angle_beta     70.68871753932702
_cell_angle_gamma    60.00001359833534

_space_group_name_H-M_alt    "P 1"
_space_group_IT_number       1

loop_
  _space_group_symop_operation_xyz
  'x, y, z'

loop_
  _atom_site_type_symbol
  _atom_site_label
  _atom_site_symmetry_multiplicity
  _atom_site_fract_x
  _atom_site_fract_y
  _atom_site_fract_z
  _atom_site_occupancy
  Ba  Ba1       1.0  0.99772368  0.99774112  0.00674069  1.0000
  Ba  Ba2       1.0  0.16571453999999997  0.1656855  0.50294433  1.0000
  Ba  Ba3       1.0  0.58842862  0.5884423499999999  0.23467371  1.0000
  O   O1        1.0  0.009255350000000011  0.15207591  0.25543712  1.0000
  O   O2        1.0  0.58322491  0.009277820000000015  0.25544230999999995  1.0000
  O   O3        1.0  0.1520548499999999  0.5832467800000001  0.25543939  1.0000
  O   O4        1.0  0.5696435900000001  0.11782683  0.5913317  1.0000
  O   O5        1.0  0.7212418599999998  0.56959024  0.59133497  1.0000
  O   O6        1.0  0.11788305000000006  0.7211853600000001  0.5913341199999999  1.0000
  O   O7        1.0  0.45133646999999993  0.03820371999999999  0.92744774  1.0000
  O   O8        1.0  0.5829512700000002  0.4513776099999999  0.92745756  1.0000
  O   O9        1.0  0.03818731999999994  0.58301048  0.92744839  1.0000
  Y   Y1        1.0  0.42496209999999995  0.42492539000000024  0.72521997  1.0000
  Y   Y2        1.0  0.8629651100000002  0.86295766  0.411134  1.0000
  Y   Y3        1.0  0.7381419200000002  0.7381324799999999  0.78551827  1.0000
  Y   Y4        1.0  0.29928535  0.2993207600000001  0.10209575  1.0000
