data_image0
_chemical_formula_structural       Fe6O8
_chemical_formula_sum              "Fe6 O8"
_cell_length_a       6.027826629191871
_cell_length_b       5.977236139945323
_cell_length_c       5.965239942091819
_cell_angle_alpha    60.08955149481394
_cell_angle_beta     60.33569611395091
_cell_angle_gamma    59.88870712286039

_space_group_name_H-M_alt    "P 1"
_space_group_IT_number       1

loop_
  _space_group_symop_operation_xyz
  'x, y, z'

loop_
  _atom_site_type_symbol
  _atom_site_label
  _atom_site_symmetry_multiplicity
  _atom_site_fract_x
  _atom_site_fract_y
  _atom_site_fract_z
  _atom_site_occupancy
  Fe  Fe1       1.0  0.88095315  0.8783490900000002  0.8703120200000001  1.0000
  Fe  Fe2       1.0  0.11904684000000001  0.12165090999999999  0.12968798  1.0000
  Fe  Fe3       1.0  0.9999999999999998  0.5000000000000001  0.5000000000000001  1.0000
  Fe  Fe4       1.0  0.4999999999999998  0.9999999899999998  0.50000001  1.0000
  Fe  Fe5       1.0  0.5  0.5000000000000001  0.0  1.0000
  Fe  Fe6       1.0  0.49999999999999983  0.5000000000000002  0.5000000000000001  1.0000
  O   O1        1.0  0.26207218999999954  0.7582945200000002  0.7393353600000001  1.0000
  O   O2        1.0  0.7480808899999998  0.2700388200000001  0.7411616100000001  1.0000
  O   O3        1.0  0.73792783  0.24170547999999997  0.2606646300000001  1.0000
  O   O4        1.0  0.2519191099999999  0.7299612  0.25883839  1.0000
  O   O5        1.0  0.7530328999999997  0.74936873  0.2625796699999998  1.0000
  O   O6        1.0  0.7530761799999998  0.74922341  0.73487234  1.0000
  O   O7        1.0  0.2469670999999999  0.25063126  0.7374203500000001  1.0000
  O   O8        1.0  0.24692381999999993  0.25077658999999997  0.26512765  1.0000
