data_image0
_chemical_formula_structural       Co2O6Ti2
_chemical_formula_sum              "Co2 O6 Ti2"
_cell_length_a       5.124506628250627
_cell_length_b       5.124516393568186
_cell_length_c       5.534673297648291
_cell_angle_alpha    62.422439420040895
_cell_angle_beta     62.42260155365595
_cell_angle_gamma    60.00013773727133

_space_group_name_H-M_alt    "P 1"
_space_group_IT_number       1

loop_
  _space_group_symop_operation_xyz
  'x, y, z'

loop_
  _atom_site_type_symbol
  _atom_site_label
  _atom_site_symmetry_multiplicity
  _atom_site_fract_x
  _atom_site_fract_y
  _atom_site_fract_z
  _atom_site_occupancy
  Co  Co1       1.0  0.6438265699999998  0.6438259700000001  0.06852089  1.0000
  Co  Co2       1.0  0.35617384999999996  0.35617167000000016  0.9314806499999999  1.0000
  O   O1        1.0  0.05006829000000007  0.43929370000000006  0.73850492  1.0000
  O   O2        1.0  0.772133  0.05006627999999998  0.73850439  1.0000
  O   O3        1.0  0.4392947799999999  0.7721319900000001  0.73850652  1.0000
  O   O4        1.0  0.94993183  0.56070394  0.26149696  1.0000
  O   O5        1.0  0.22786748999999987  0.9499314400000001  0.26149688999999987  1.0000
  O   O6        1.0  0.5607053899999997  0.22786553  0.26149536  1.0000
  Ti  Ti1       1.0  0.8539717699999998  0.85397011  0.43808657999999984  1.0000
  Ti  Ti2       1.0  0.14602883999999997  0.14602754  0.5619150299999999  1.0000
