data_image0
_chemical_formula_structural       O7Sr3Ti2
_chemical_formula_sum              "O7 Sr3 Ti2"
_cell_length_a       3.9517037174362972
_cell_length_b       3.951703773432154
_cell_length_c       10.644539033605891
_cell_angle_alpha    100.69934121550861
_cell_angle_beta     100.69934058206546
_cell_angle_gamma    90.00004423838581

_space_group_name_H-M_alt    "P 1"
_space_group_IT_number       1

loop_
  _space_group_symop_operation_xyz
  'x, y, z'

loop_
  _atom_site_type_symbol
  _atom_site_label
  _atom_site_symmetry_multiplicity
  _atom_site_fract_x
  _atom_site_fract_y
  _atom_site_fract_z
  _atom_site_occupancy
  O   O1        1.0  0.0  0.9999999999999997  0.0  1.0000
  O   O2        1.0  0.8057649200000001  0.8057648999999999  0.61172251  1.0000
  O   O3        1.0  0.19423508  0.1942351  0.38827749  1.0000
  O   O4        1.0  0.40350018000000004  0.9034797099999999  0.8071247800000001  1.0000
  O   O5        1.0  0.9034797200000001  0.4035001699999999  0.80712478  1.0000
  O   O6        1.0  0.5964998300000002  0.09652029000000001  0.19287522000000004  1.0000
  O   O7        1.0  0.09652028000000001  0.5964998299999998  0.19287522000000004  1.0000
  Sr  Sr1       1.0  0.5  0.5  1.0  1.0000
  Sr  Sr2       1.0  0.6845488600000001  0.6845488599999998  0.36910125999999993  1.0000
  Sr  Sr3       1.0  0.3154511400000001  0.31545114  0.63089873  1.0000
  Ti  Ti1       1.0  0.9021858200000001  0.90218583  0.80439741  1.0000
  Ti  Ti2       1.0  0.09781418000000001  0.09781418000000001  0.19560259000000002  1.0000
