data_image0
_chemical_formula_structural       Nb2O8La2
_chemical_formula_sum              "Nb2 O8 La2"
_cell_length_a       5.696900810750619
_cell_length_b       11.653475676666504
_cell_length_c       6.894431714331986
_cell_angle_alpha    32.31151415354407
_cell_angle_beta     67.89128588187532
_cell_angle_gamma    89.99977795964156

_space_group_name_H-M_alt    "P 1"
_space_group_IT_number       1

loop_
  _space_group_symop_operation_xyz
  'x, y, z'

loop_
  _atom_site_type_symbol
  _atom_site_label
  _atom_site_symmetry_multiplicity
  _atom_site_fract_x
  _atom_site_fract_y
  _atom_site_fract_z
  _atom_site_occupancy
  Nb  Nb1       1.0  0.7499997800000002  0.8473997799999997  0.5000374000000001  1.0000
  Nb  Nb2       1.0  0.25000021999999994  0.15260021999999995  0.49996260000000003  1.0000
  O   O1        1.0  0.19951097000000004  0.9964199299999998  0.06985257  1.0000
  O   O2        1.0  0.30049320000000007  0.5662454200000001  0.93016574  1.0000
  O   O3        1.0  0.80048903  0.0035800700000000363  0.9301474400000002  1.0000
  O   O4        1.0  0.69950679  0.43375457999999983  0.06983427  1.0000
  O   O5        1.0  0.6588746099999999  0.7151413400000002  0.9775119899999999  1.0000
  O   O6        1.0  0.8411064699999999  0.19263517999999996  0.02250891  1.0000
  O   O7        1.0  0.3411254000000001  0.2848586699999999  0.022488010000000003  1.0000
  O   O8        1.0  0.15889353999999986  0.8073648300000001  0.9774910700000001  1.0000
  La  La1       1.0  0.7500098099999998  0.3819047399999999  0.50000374  1.0000
  La  La2       1.0  0.24999018000000003  0.6180952499999999  0.4999962700000001  1.0000
