data_image0
_chemical_formula_structural       Ba20Nb6Bi14O60
_chemical_formula_sum              "Ba20 Nb6 Bi14 O60"
_cell_length_a       12.3157
_cell_length_b       13.7422
_cell_length_c       10.5401
_cell_angle_alpha    75.4203
_cell_angle_beta     106.963
_cell_angle_gamma    102.951

_space_group_name_H-M_alt    "P 1"
_space_group_IT_number       1

loop_
  _space_group_symop_operation_xyz
  'x, y, z'

loop_
  _atom_site_type_symbol
  _atom_site_label
  _atom_site_symmetry_multiplicity
  _atom_site_fract_x
  _atom_site_fract_y
  _atom_site_fract_z
  _atom_site_occupancy
  Ba  Ba1       1.0  0.70102  0.35333  0.44610  1.0000
  Ba  Ba2       1.0  0.20101  0.35329  0.44602  1.0000
  Ba  Ba3       1.0  0.10191  0.54885  0.85114  1.0000
  Ba  Ba4       1.0  0.60185  0.54889  0.85127  1.0000
  Ba  Ba5       1.0  0.99909  0.74549  0.25190  1.0000
  Ba  Ba6       1.0  0.49917  0.74569  0.25176  1.0000
  Ba  Ba7       1.0  0.39882  0.94852  0.65024  1.0000
  Ba  Ba8       1.0  0.89876  0.94859  0.65017  1.0000
  Ba  Ba9       1.0  0.79993  0.15394  0.04715  1.0000
  Ba  Ba10      1.0  0.30005  0.15393  0.04714  1.0000
  Ba  Ba11      1.0  0.00195  0.25504  0.74910  1.0000
  Ba  Ba12      1.0  0.50198  0.25508  0.74912  1.0000
  Ba  Ba13      1.0  0.89934  0.45179  0.14987  1.0000
  Ba  Ba14      1.0  0.39938  0.45172  0.14986  1.0000
  Ba  Ba15      1.0  0.30026  0.64734  0.55482  1.0000
  Ba  Ba16      1.0  0.80021  0.64735  0.55498  1.0000
  Ba  Ba17      1.0  0.20117  0.84677  0.95381  1.0000
  Ba  Ba18      1.0  0.70132  0.84666  0.95392  1.0000
  Ba  Ba19      1.0  0.60231  0.05209  0.35089  1.0000
  Ba  Ba20      1.0  0.10241  0.05220  0.35080  1.0000
  Nb  Nb1       1.0  0.90221  0.70024  0.90160  1.0000
  Nb  Nb2       1.0  0.40221  0.70022  0.90168  1.0000
  Nb  Nb3       1.0  0.00061  0.50034  0.50055  1.0000
  Nb  Nb4       1.0  0.50059  0.50033  0.50044  1.0000
  Nb  Nb5       1.0  0.09904  0.30048  0.09930  1.0000
  Nb  Nb6       1.0  0.59902  0.30041  0.09934  1.0000
  Bi  Bi1       1.0  0.90108  0.20378  0.39772  1.0000
  Bi  Bi2       1.0  0.40112  0.20372  0.39774  1.0000
  Bi  Bi3       1.0  0.80200  0.40323  0.80121  1.0000
  Bi  Bi4       1.0  0.30204  0.40326  0.80109  1.0000
  Bi  Bi5       1.0  0.19912  0.59745  0.19975  1.0000
  Bi  Bi6       1.0  0.69919  0.59740  0.19982  1.0000
  Bi  Bi7       1.0  0.10009  0.79693  0.60326  1.0000
  Bi  Bi8       1.0  0.60009  0.79683  0.60329  1.0000
  Bi  Bi9       1.0  0.50056  0.00028  0.00054  1.0000
  Bi  Bi10      1.0  0.00064  0.00036  0.00052  1.0000
  Bi  Bi11      1.0  0.70018  0.10073  0.69982  1.0000
  Bi  Bi12      1.0  0.20021  0.10079  0.69981  1.0000
  Bi  Bi13      1.0  0.30096  0.89982  0.30125  1.0000
  Bi  Bi14      1.0  0.80097  0.89987  0.30121  1.0000
  O   O1        1.0  0.07417  0.17270  0.53898  1.0000
  O   O2        1.0  0.57408  0.17271  0.53911  1.0000
  O   O3        1.0  0.17413  0.97172  0.14116  1.0000
  O   O4        1.0  0.67414  0.97169  0.14112  1.0000
  O   O5        1.0  0.27695  0.76263  0.75271  1.0000
  O   O6        1.0  0.77690  0.76257  0.75270  1.0000
  O   O7        1.0  0.87417  0.56252  0.35277  1.0000
  O   O8        1.0  0.37418  0.56258  0.35276  1.0000
  O   O9        1.0  0.97748  0.36859  0.95119  1.0000
  O   O10       1.0  0.47744  0.36854  0.95121  1.0000
  O   O11       1.0  0.80816  0.12719  0.56408  1.0000
  O   O12       1.0  0.30813  0.12733  0.56399  1.0000
  O   O13       1.0  0.41072  0.92411  0.16847  1.0000
  O   O14       1.0  0.91070  0.92395  0.16850  1.0000
  O   O15       1.0  0.00223  0.72112  0.77316  1.0000
  O   O16       1.0  0.50231  0.72111  0.77321  1.0000
  O   O17       1.0  0.09768  0.52479  0.36718  1.0000
  O   O18       1.0  0.59775  0.52482  0.36723  1.0000
  O   O19       1.0  0.70004  0.33021  0.96832  1.0000
  O   O20       1.0  0.19990  0.33021  0.96824  1.0000
  O   O21       1.0  0.12432  0.95476  0.65231  1.0000
  O   O22       1.0  0.62433  0.95475  0.65228  1.0000
  O   O23       1.0  0.22477  0.75600  0.24772  1.0000
  O   O24       1.0  0.72472  0.75601  0.24762  1.0000
  O   O25       1.0  0.82846  0.56105  0.85161  1.0000
  O   O26       1.0  0.32843  0.56110  0.85165  1.0000
  O   O27       1.0  0.92902  0.36167  0.45555  1.0000
  O   O28       1.0  0.42911  0.36163  0.45561  1.0000
  O   O29       1.0  0.02870  0.16354  0.05338  1.0000
  O   O30       1.0  0.52864  0.16359  0.05321  1.0000
  O   O31       1.0  0.82703  0.02890  0.85985  1.0000
  O   O32       1.0  0.32708  0.02893  0.85986  1.0000
  O   O33       1.0  0.92697  0.82790  0.46202  1.0000
  O   O34       1.0  0.42703  0.82786  0.46213  1.0000
  O   O35       1.0  0.02378  0.63208  0.04978  1.0000
  O   O36       1.0  0.52375  0.63209  0.04979  1.0000
  O   O37       1.0  0.12699  0.43808  0.64823  1.0000
  O   O38       1.0  0.62697  0.43813  0.64817  1.0000
  O   O39       1.0  0.72428  0.23790  0.24824  1.0000
  O   O40       1.0  0.22430  0.23798  0.24817  1.0000
  O   O41       1.0  0.59041  0.07652  0.83255  1.0000
  O   O42       1.0  0.09037  0.07655  0.83251  1.0000
  O   O43       1.0  0.19306  0.87326  0.43709  1.0000
  O   O44       1.0  0.69306  0.87345  0.43699  1.0000
  O   O45       1.0  0.30128  0.67045  0.03271  1.0000
  O   O46       1.0  0.80123  0.67048  0.03268  1.0000
  O   O47       1.0  0.90343  0.47585  0.63375  1.0000
  O   O48       1.0  0.40342  0.47572  0.63377  1.0000
  O   O49       1.0  0.99896  0.27955  0.22783  1.0000
  O   O50       1.0  0.49902  0.27952  0.22785  1.0000
  O   O51       1.0  0.77643  0.24460  0.75321  1.0000
  O   O52       1.0  0.27646  0.24462  0.75339  1.0000
  O   O53       1.0  0.87700  0.04586  0.34878  1.0000
  O   O54       1.0  0.37688  0.04585  0.34878  1.0000
  O   O55       1.0  0.97254  0.83708  0.94777  1.0000
  O   O56       1.0  0.47255  0.83715  0.94773  1.0000
  O   O57       1.0  0.07207  0.63900  0.54542  1.0000
  O   O58       1.0  0.57208  0.63900  0.54550  1.0000
  O   O59       1.0  0.17296  0.43961  0.14938  1.0000
  O   O60       1.0  0.67278  0.43951  0.14939  1.0000
