data_image0
_chemical_formula_structural       Mg80O80
_chemical_formula_sum              "Mg80 O80"
_cell_length_a       10.2716
_cell_length_b       12.2258
_cell_length_c       11.8608
_cell_angle_alpha    96.9666
_cell_angle_beta     89.9995
_cell_angle_gamma    94.0143

_space_group_name_H-M_alt    "P 1"
_space_group_IT_number       1

loop_
  _space_group_symop_operation_xyz
  'x, y, z'

loop_
  _atom_site_type_symbol
  _atom_site_label
  _atom_site_symmetry_multiplicity
  _atom_site_fract_x
  _atom_site_fract_y
  _atom_site_fract_z
  _atom_site_occupancy
  Mg  Mg1       1.0  0.05054  0.60041  0.07543  1.0000
  Mg  Mg2       1.0  0.05062  0.60041  0.32547  1.0000
  Mg  Mg3       1.0  0.05051  0.60046  0.57551  1.0000
  Mg  Mg4       1.0  0.05050  0.60040  0.82542  1.0000
  Mg  Mg5       1.0  0.15057  0.80040  0.22540  1.0000
  Mg  Mg6       1.0  0.15057  0.80049  0.47543  1.0000
  Mg  Mg7       1.0  0.15057  0.80039  0.72545  1.0000
  Mg  Mg8       1.0  0.15048  0.80042  0.97542  1.0000
  Mg  Mg9       1.0  0.00047  0.00032  0.00036  1.0000
  Mg  Mg10      1.0  0.00053  0.00039  0.25039  1.0000
  Mg  Mg11      1.0  0.00054  0.00053  0.50047  1.0000
  Mg  Mg12      1.0  0.00049  0.00039  0.75045  1.0000
  Mg  Mg13      1.0  0.10048  0.20036  0.15043  1.0000
  Mg  Mg14      1.0  0.10055  0.20040  0.40050  1.0000
  Mg  Mg15      1.0  0.10051  0.20037  0.65050  1.0000
  Mg  Mg16      1.0  0.10051  0.20042  0.90041  1.0000
  Mg  Mg17      1.0  0.20048  0.40044  0.05058  1.0000
  Mg  Mg18      1.0  0.20047  0.40030  0.30047  1.0000
  Mg  Mg19      1.0  0.20050  0.40039  0.55053  1.0000
  Mg  Mg20      1.0  0.20055  0.40041  0.80057  1.0000
  Mg  Mg21      1.0  0.30056  0.60045  0.20052  1.0000
  Mg  Mg22      1.0  0.30047  0.60042  0.45050  1.0000
  Mg  Mg23      1.0  0.30049  0.60043  0.70053  1.0000
  Mg  Mg24      1.0  0.30049  0.60040  0.95053  1.0000
  Mg  Mg25      1.0  0.40051  0.80047  0.10049  1.0000
  Mg  Mg26      1.0  0.40054  0.80043  0.35044  1.0000
  Mg  Mg27      1.0  0.40048  0.80031  0.60046  1.0000
  Mg  Mg28      1.0  0.40049  0.80044  0.85058  1.0000
  Mg  Mg29      1.0  0.25052  0.00043  0.12542  1.0000
  Mg  Mg30      1.0  0.25060  0.00046  0.37541  1.0000
  Mg  Mg31      1.0  0.25050  0.00039  0.62553  1.0000
  Mg  Mg32      1.0  0.25048  0.00042  0.87549  1.0000
  Mg  Mg33      1.0  0.35048  0.20038  0.02551  1.0000
  Mg  Mg34      1.0  0.35052  0.20041  0.27557  1.0000
  Mg  Mg35      1.0  0.35048  0.20043  0.52554  1.0000
  Mg  Mg36      1.0  0.35057  0.20040  0.77548  1.0000
  Mg  Mg37      1.0  0.45046  0.40035  0.17551  1.0000
  Mg  Mg38      1.0  0.45047  0.40046  0.42557  1.0000
  Mg  Mg39      1.0  0.45053  0.40047  0.67552  1.0000
  Mg  Mg40      1.0  0.45036  0.40043  0.92556  1.0000
  Mg  Mg41      1.0  0.55054  0.60048  0.07552  1.0000
  Mg  Mg42      1.0  0.55055  0.60041  0.32554  1.0000
  Mg  Mg43      1.0  0.55052  0.60046  0.57548  1.0000
  Mg  Mg44      1.0  0.55041  0.60047  0.82556  1.0000
  Mg  Mg45      1.0  0.65054  0.80039  0.22545  1.0000
  Mg  Mg46      1.0  0.65052  0.80043  0.47546  1.0000
  Mg  Mg47      1.0  0.65049  0.80036  0.72546  1.0000
  Mg  Mg48      1.0  0.65062  0.80040  0.97543  1.0000
  Mg  Mg49      1.0  0.50058  0.00038  0.00046  1.0000
  Mg  Mg50      1.0  0.50061  0.00042  0.25040  1.0000
  Mg  Mg51      1.0  0.50044  0.00038  0.50054  1.0000
  Mg  Mg52      1.0  0.50053  0.00031  0.75052  1.0000
  Mg  Mg53      1.0  0.60053  0.20037  0.15044  1.0000
  Mg  Mg54      1.0  0.60049  0.20043  0.40044  1.0000
  Mg  Mg55      1.0  0.60043  0.20044  0.65044  1.0000
  Mg  Mg56      1.0  0.60043  0.20037  0.90048  1.0000
  Mg  Mg57      1.0  0.70042  0.40045  0.05047  1.0000
  Mg  Mg58      1.0  0.70050  0.40042  0.30047  1.0000
  Mg  Mg59      1.0  0.70050  0.40044  0.55045  1.0000
  Mg  Mg60      1.0  0.70038  0.40044  0.80051  1.0000
  Mg  Mg61      1.0  0.80060  0.60042  0.20043  1.0000
  Mg  Mg62      1.0  0.80060  0.60046  0.45036  1.0000
  Mg  Mg63      1.0  0.80043  0.60035  0.70039  1.0000
  Mg  Mg64      1.0  0.80050  0.60039  0.95036  1.0000
  Mg  Mg65      1.0  0.90054  0.80033  0.10042  1.0000
  Mg  Mg66      1.0  0.90059  0.80052  0.35047  1.0000
  Mg  Mg67      1.0  0.90047  0.80046  0.60045  1.0000
  Mg  Mg68      1.0  0.90056  0.80036  0.85035  1.0000
  Mg  Mg69      1.0  0.75060  0.00037  0.12544  1.0000
  Mg  Mg70      1.0  0.75051  0.00045  0.37551  1.0000
  Mg  Mg71      1.0  0.75046  0.00045  0.62548  1.0000
  Mg  Mg72      1.0  0.75058  0.00041  0.87540  1.0000
  Mg  Mg73      1.0  0.85052  0.20037  0.02537  1.0000
  Mg  Mg74      1.0  0.85052  0.20035  0.27542  1.0000
  Mg  Mg75      1.0  0.85040  0.20050  0.52548  1.0000
  Mg  Mg76      1.0  0.85041  0.20046  0.77544  1.0000
  Mg  Mg77      1.0  0.95046  0.40039  0.17538  1.0000
  Mg  Mg78      1.0  0.95054  0.40039  0.42545  1.0000
  Mg  Mg79      1.0  0.95051  0.40042  0.67546  1.0000
  Mg  Mg80      1.0  0.95055  0.40042  0.92540  1.0000
  O   O1        1.0  0.22552  0.70045  0.33798  1.0000
  O   O2        1.0  0.22549  0.70043  0.58796  1.0000
  O   O3        1.0  0.22552  0.70040  0.83799  1.0000
  O   O4        1.0  0.22552  0.70042  0.08795  1.0000
  O   O5        1.0  0.32552  0.90040  0.48798  1.0000
  O   O6        1.0  0.32554  0.90040  0.73800  1.0000
  O   O7        1.0  0.32551  0.90045  0.98799  1.0000
  O   O8        1.0  0.32559  0.90050  0.23791  1.0000
  O   O9        1.0  0.17553  0.10036  0.26297  1.0000
  O   O10       1.0  0.17552  0.10038  0.51301  1.0000
  O   O11       1.0  0.17553  0.10043  0.76298  1.0000
  O   O12       1.0  0.17544  0.10041  0.01291  1.0000
  O   O13       1.0  0.27549  0.30038  0.41305  1.0000
  O   O14       1.0  0.27553  0.30044  0.66300  1.0000
  O   O15       1.0  0.27551  0.30036  0.91302  1.0000
  O   O16       1.0  0.27545  0.30035  0.16302  1.0000
  O   O17       1.0  0.37546  0.50035  0.31301  1.0000
  O   O18       1.0  0.37555  0.50045  0.56304  1.0000
  O   O19       1.0  0.37546  0.50048  0.81306  1.0000
  O   O20       1.0  0.37549  0.50043  0.06309  1.0000
  O   O21       1.0  0.47552  0.70040  0.46298  1.0000
  O   O22       1.0  0.47544  0.70039  0.71306  1.0000
  O   O23       1.0  0.47547  0.70047  0.96307  1.0000
  O   O24       1.0  0.47558  0.70046  0.21300  1.0000
  O   O25       1.0  0.57551  0.90043  0.36295  1.0000
  O   O26       1.0  0.57550  0.90037  0.61299  1.0000
  O   O27       1.0  0.57561  0.90042  0.86299  1.0000
  O   O28       1.0  0.57559  0.90037  0.11295  1.0000
  O   O29       1.0  0.42556  0.10044  0.38797  1.0000
  O   O30       1.0  0.42553  0.10035  0.63800  1.0000
  O   O31       1.0  0.42554  0.10034  0.88803  1.0000
  O   O32       1.0  0.42555  0.10042  0.13797  1.0000
  O   O33       1.0  0.52548  0.30041  0.28800  1.0000
  O   O34       1.0  0.52546  0.30043  0.53800  1.0000
  O   O35       1.0  0.52546  0.30043  0.78799  1.0000
  O   O36       1.0  0.52550  0.30038  0.03801  1.0000
  O   O37       1.0  0.62558  0.50047  0.43797  1.0000
  O   O38       1.0  0.62545  0.50045  0.68799  1.0000
  O   O39       1.0  0.62539  0.50043  0.93798  1.0000
  O   O40       1.0  0.62554  0.50041  0.18798  1.0000
  O   O41       1.0  0.72557  0.70046  0.33795  1.0000
  O   O42       1.0  0.72550  0.70042  0.58788  1.0000
  O   O43       1.0  0.72549  0.70039  0.83786  1.0000
  O   O44       1.0  0.72560  0.70040  0.08791  1.0000
  O   O45       1.0  0.82557  0.90051  0.48798  1.0000
  O   O46       1.0  0.82549  0.90040  0.73793  1.0000
  O   O47       1.0  0.82560  0.90034  0.98787  1.0000
  O   O48       1.0  0.82555  0.90044  0.23797  1.0000
  O   O49       1.0  0.67558  0.10042  0.26297  1.0000
  O   O50       1.0  0.67544  0.10045  0.51297  1.0000
  O   O51       1.0  0.67540  0.10040  0.76293  1.0000
  O   O52       1.0  0.67556  0.10035  0.01290  1.0000
  O   O53       1.0  0.77553  0.30039  0.41297  1.0000
  O   O54       1.0  0.77541  0.30048  0.66297  1.0000
  O   O55       1.0  0.77540  0.30043  0.91297  1.0000
  O   O56       1.0  0.77548  0.30037  0.16293  1.0000
  O   O57       1.0  0.87555  0.50040  0.31294  1.0000
  O   O58       1.0  0.87553  0.50038  0.56293  1.0000
  O   O59       1.0  0.87547  0.50037  0.81292  1.0000
  O   O60       1.0  0.87551  0.50040  0.06291  1.0000
  O   O61       1.0  0.97557  0.70046  0.46293  1.0000
  O   O62       1.0  0.97543  0.70042  0.71291  1.0000
  O   O63       1.0  0.97555  0.70038  0.96289  1.0000
  O   O64       1.0  0.97558  0.70041  0.21295  1.0000
  O   O65       1.0  0.07561  0.90051  0.36294  1.0000
  O   O66       1.0  0.07558  0.90045  0.61297  1.0000
  O   O67       1.0  0.07550  0.90041  0.86292  1.0000
  O   O68       1.0  0.07549  0.90034  0.11292  1.0000
  O   O69       1.0  0.92549  0.10045  0.38793  1.0000
  O   O70       1.0  0.92546  0.10047  0.63797  1.0000
  O   O71       1.0  0.92547  0.10040  0.88785  1.0000
  O   O72       1.0  0.92553  0.10035  0.13790  1.0000
  O   O73       1.0  0.02549  0.30037  0.28790  1.0000
  O   O74       1.0  0.02546  0.30039  0.53798  1.0000
  O   O75       1.0  0.02549  0.30044  0.78794  1.0000
  O   O76       1.0  0.02552  0.30039  0.03791  1.0000
  O   O77       1.0  0.12553  0.50037  0.43800  1.0000
  O   O78       1.0  0.12551  0.50042  0.68800  1.0000
  O   O79       1.0  0.12550  0.50045  0.93797  1.0000
  O   O80       1.0  0.12550  0.50040  0.18802  1.0000
