data_image0
_chemical_formula_structural       Ba24Sr24O48
_chemical_formula_sum              "Ba24 Sr24 O48"
_cell_length_a       12.6403
_cell_length_b       11.3879
_cell_length_c       13.1497
_cell_angle_alpha    90
_cell_angle_beta     99.9982
_cell_angle_gamma    90

_space_group_name_H-M_alt    "P 1"
_space_group_IT_number       1

loop_
  _space_group_symop_operation_xyz
  'x, y, z'

loop_
  _atom_site_type_symbol
  _atom_site_label
  _atom_site_symmetry_multiplicity
  _atom_site_fract_x
  _atom_site_fract_y
  _atom_site_fract_z
  _atom_site_occupancy
  Ba  Ba1       1.0  0.00052  0.83360  0.75037  1.0000
  Ba  Ba2       1.0  0.00055  0.50030  0.75032  1.0000
  Ba  Ba3       1.0  0.00058  0.66713  0.50029  1.0000
  Ba  Ba4       1.0  0.50049  0.66705  0.75036  1.0000
  Ba  Ba5       1.0  0.00048  0.83391  0.25036  1.0000
  Ba  Ba6       1.0  0.50053  0.83391  0.50038  1.0000
  Ba  Ba7       1.0  0.00040  0.16704  0.75044  1.0000
  Ba  Ba8       1.0  0.00031  0.33382  0.50035  1.0000
  Ba  Ba9       1.0  0.50035  0.33372  0.75036  1.0000
  Ba  Ba10      1.0  0.00047  0.50052  0.25044  1.0000
  Ba  Ba11      1.0  0.50043  0.50042  0.50031  1.0000
  Ba  Ba12      1.0  0.00038  0.66702  0.00036  1.0000
  Ba  Ba13      1.0  0.50042  0.66727  0.25039  1.0000
  Ba  Ba14      1.0  0.50033  0.83367  0.00037  1.0000
  Ba  Ba15      1.0  0.00038  0.00039  0.50033  1.0000
  Ba  Ba16      1.0  0.50039  0.00041  0.75046  1.0000
  Ba  Ba17      1.0  0.00047  0.16713  0.25051  1.0000
  Ba  Ba18      1.0  0.50049  0.16713  0.50049  1.0000
  Ba  Ba19      1.0  0.00049  0.33370  0.00033  1.0000
  Ba  Ba20      1.0  0.50046  0.33388  0.25041  1.0000
  Ba  Ba21      1.0  0.50041  0.50035  0.00037  1.0000
  Ba  Ba22      1.0  0.00042  0.00040  0.00033  1.0000
  Ba  Ba23      1.0  0.50048  0.00058  0.25029  1.0000
  Ba  Ba24      1.0  0.50055  0.16705  0.00033  1.0000
  Sr  Sr1       1.0  0.75040  0.83388  0.87541  1.0000
  Sr  Sr2       1.0  0.75045  0.50039  0.87543  1.0000
  Sr  Sr3       1.0  0.75045  0.66713  0.62539  1.0000
  Sr  Sr4       1.0  0.25045  0.66701  0.87531  1.0000
  Sr  Sr5       1.0  0.75035  0.83375  0.37545  1.0000
  Sr  Sr6       1.0  0.25050  0.83395  0.62541  1.0000
  Sr  Sr7       1.0  0.75037  0.16714  0.87533  1.0000
  Sr  Sr8       1.0  0.75046  0.33382  0.62540  1.0000
  Sr  Sr9       1.0  0.25037  0.33372  0.87547  1.0000
  Sr  Sr10      1.0  0.75044  0.50047  0.37538  1.0000
  Sr  Sr11      1.0  0.25055  0.50048  0.62537  1.0000
  Sr  Sr12      1.0  0.75041  0.66706  0.12536  1.0000
  Sr  Sr13      1.0  0.25055  0.66718  0.37534  1.0000
  Sr  Sr14      1.0  0.25042  0.83389  0.12536  1.0000
  Sr  Sr15      1.0  0.75046  0.00026  0.62554  1.0000
  Sr  Sr16      1.0  0.25045  0.00044  0.87543  1.0000
  Sr  Sr17      1.0  0.75041  0.16709  0.37536  1.0000
  Sr  Sr18      1.0  0.25034  0.16711  0.62535  1.0000
  Sr  Sr19      1.0  0.75041  0.33371  0.12541  1.0000
  Sr  Sr20      1.0  0.25059  0.33377  0.37551  1.0000
  Sr  Sr21      1.0  0.25048  0.50059  0.12546  1.0000
  Sr  Sr22      1.0  0.75048  0.00040  0.12530  1.0000
  Sr  Sr23      1.0  0.25056  0.00061  0.37543  1.0000
  Sr  Sr24      1.0  0.25047  0.16727  0.12549  1.0000
  O   O1        1.0  0.36693  0.83364  0.81155  1.0000
  O   O2        1.0  0.36698  0.50029  0.81156  1.0000
  O   O3        1.0  0.36713  0.66712  0.56134  1.0000
  O   O4        1.0  0.86687  0.66710  0.81156  1.0000
  O   O5        1.0  0.36698  0.83391  0.31136  1.0000
  O   O6        1.0  0.86703  0.83362  0.56150  1.0000
  O   O7        1.0  0.36703  0.16700  0.81146  1.0000
  O   O8        1.0  0.36693  0.33394  0.56159  1.0000
  O   O9        1.0  0.86701  0.33375  0.81138  1.0000
  O   O10       1.0  0.36692  0.50042  0.31138  1.0000
  O   O11       1.0  0.86708  0.50061  0.56148  1.0000
  O   O12       1.0  0.36693  0.66707  0.06164  1.0000
  O   O13       1.0  0.86690  0.66715  0.31151  1.0000
  O   O14       1.0  0.86700  0.83391  0.06152  1.0000
  O   O15       1.0  0.36688  0.00058  0.56152  1.0000
  O   O16       1.0  0.86706  0.00042  0.81150  1.0000
  O   O17       1.0  0.36703  0.16717  0.31160  1.0000
  O   O18       1.0  0.86708  0.16711  0.56151  1.0000
  O   O19       1.0  0.36693  0.33362  0.06159  1.0000
  O   O20       1.0  0.86682  0.33376  0.31146  1.0000
  O   O21       1.0  0.86704  0.50049  0.06150  1.0000
  O   O22       1.0  0.36698  0.00039  0.06147  1.0000
  O   O23       1.0  0.86690  0.00058  0.31150  1.0000
  O   O24       1.0  0.86695  0.16709  0.06144  1.0000
  O   O25       1.0  0.13384  0.83376  0.93918  1.0000
  O   O26       1.0  0.13394  0.50028  0.93932  1.0000
  O   O27       1.0  0.13407  0.66704  0.68928  1.0000
  O   O28       1.0  0.63395  0.66703  0.93940  1.0000
  O   O29       1.0  0.13406  0.83376  0.43929  1.0000
  O   O30       1.0  0.63403  0.83385  0.68944  1.0000
  O   O31       1.0  0.13410  0.16716  0.93932  1.0000
  O   O32       1.0  0.13378  0.33385  0.68925  1.0000
  O   O33       1.0  0.63387  0.33377  0.93941  1.0000
  O   O34       1.0  0.13403  0.50031  0.43924  1.0000
  O   O35       1.0  0.63385  0.50046  0.68945  1.0000
  O   O36       1.0  0.13378  0.66729  0.18925  1.0000
  O   O37       1.0  0.63376  0.66717  0.43943  1.0000
  O   O38       1.0  0.63398  0.83385  0.18938  1.0000
  O   O39       1.0  0.13387  0.00036  0.68923  1.0000
  O   O40       1.0  0.63382  0.00032  0.93919  1.0000
  O   O41       1.0  0.13394  0.16702  0.43941  1.0000
  O   O42       1.0  0.63411  0.16709  0.68941  1.0000
  O   O43       1.0  0.13377  0.33383  0.18933  1.0000
  O   O44       1.0  0.63402  0.33362  0.43946  1.0000
  O   O45       1.0  0.63389  0.50054  0.18942  1.0000
  O   O46       1.0  0.13381  0.00069  0.18923  1.0000
  O   O47       1.0  0.63389  0.00041  0.43947  1.0000
  O   O48       1.0  0.63392  0.16712  0.18925  1.0000
