data_image0
_chemical_formula_structural       K8Ti24Al8O64
_chemical_formula_sum              "K8 Ti24 Al8 O64"
_cell_length_a       9.97446
_cell_length_b       9.9845
_cell_length_c       11.8077
_cell_angle_alpha    90.0097
_cell_angle_beta     89.9954
_cell_angle_gamma    89.688

_space_group_name_H-M_alt    "P 1"
_space_group_IT_number       1

loop_
  _space_group_symop_operation_xyz
  'x, y, z'

loop_
  _atom_site_type_symbol
  _atom_site_label
  _atom_site_symmetry_multiplicity
  _atom_site_fract_x
  _atom_site_fract_y
  _atom_site_fract_z
  _atom_site_occupancy
  K   K1        1.0  0.49457  0.50309  0.12979  1.0000
  K   K2        1.0  0.99451  0.00295  0.00477  1.0000
  K   K3        1.0  0.49460  0.50301  0.37980  1.0000
  K   K4        1.0  0.99468  0.00295  0.25480  1.0000
  K   K5        1.0  0.49458  0.50311  0.62978  1.0000
  K   K6        1.0  0.99453  0.00317  0.50478  1.0000
  K   K7        1.0  0.49442  0.50298  0.87977  1.0000
  K   K8        1.0  0.99465  0.00311  0.75477  1.0000
  Ti  Ti1       1.0  0.15975  0.67284  0.25544  1.0000
  Ti  Ti2       1.0  0.65971  0.17292  0.13043  1.0000
  Ti  Ti3       1.0  0.15967  0.67291  0.50544  1.0000
  Ti  Ti4       1.0  0.65975  0.17286  0.38043  1.0000
  Ti  Ti5       1.0  0.15968  0.67287  0.75544  1.0000
  Ti  Ti6       1.0  0.65974  0.17285  0.63044  1.0000
  Ti  Ti7       1.0  0.15976  0.67285  0.00543  1.0000
  Ti  Ti8       1.0  0.65974  0.17287  0.88044  1.0000
  Ti  Ti9       1.0  0.83567  0.64078  0.38000  1.0000
  Ti  Ti10      1.0  0.33570  0.14073  0.25498  1.0000
  Ti  Ti11      1.0  0.83567  0.64074  0.63001  1.0000
  Ti  Ti12      1.0  0.33571  0.14075  0.50497  1.0000
  Ti  Ti13      1.0  0.83568  0.64074  0.88003  1.0000
  Ti  Ti14      1.0  0.33570  0.14072  0.75497  1.0000
  Ti  Ti15      1.0  0.83571  0.64076  0.13001  1.0000
  Ti  Ti16      1.0  0.33569  0.14075  0.00499  1.0000
  Ti  Ti17      1.0  0.16251  0.34874  0.13069  1.0000
  Ti  Ti18      1.0  0.66249  0.84879  0.00563  1.0000
  Ti  Ti19      1.0  0.16253  0.34880  0.38069  1.0000
  Ti  Ti20      1.0  0.66258  0.84880  0.25564  1.0000
  Ti  Ti21      1.0  0.16252  0.34879  0.63065  1.0000
  Ti  Ti22      1.0  0.66247  0.84876  0.50565  1.0000
  Ti  Ti23      1.0  0.16252  0.34874  0.88065  1.0000
  Ti  Ti24      1.0  0.66252  0.84877  0.75565  1.0000
  Al  Al1       1.0  0.85107  0.33441  0.25528  1.0000
  Al  Al2       1.0  0.35107  0.83437  0.13029  1.0000
  Al  Al3       1.0  0.85107  0.33439  0.50527  1.0000
  Al  Al4       1.0  0.35103  0.83439  0.38027  1.0000
  Al  Al5       1.0  0.85108  0.33438  0.75526  1.0000
  Al  Al6       1.0  0.35103  0.83440  0.63028  1.0000
  Al  Al7       1.0  0.85105  0.33441  0.00531  1.0000
  Al  Al8       1.0  0.35105  0.83438  0.88026  1.0000
  O   O1        1.0  0.16826  0.54234  0.38032  1.0000
  O   O2        1.0  0.66832  0.04238  0.25529  1.0000
  O   O3        1.0  0.16819  0.54235  0.63029  1.0000
  O   O4        1.0  0.66827  0.04236  0.50530  1.0000
  O   O5        1.0  0.16827  0.54232  0.88030  1.0000
  O   O6        1.0  0.66826  0.04235  0.75531  1.0000
  O   O7        1.0  0.16831  0.54236  0.13032  1.0000
  O   O8        1.0  0.66827  0.04233  0.00530  1.0000
  O   O9        1.0  0.83769  0.45563  0.13026  1.0000
  O   O10       1.0  0.33768  0.95562  0.00526  1.0000
  O   O11       1.0  0.83769  0.45563  0.38030  1.0000
  O   O12       1.0  0.33766  0.95562  0.25529  1.0000
  O   O13       1.0  0.83772  0.45561  0.63028  1.0000
  O   O14       1.0  0.33767  0.95563  0.50526  1.0000
  O   O15       1.0  0.83772  0.45562  0.88028  1.0000
  O   O16       1.0  0.33767  0.95559  0.75528  1.0000
  O   O17       1.0  0.03681  0.33599  0.25537  1.0000
  O   O18       1.0  0.53681  0.83601  0.13037  1.0000
  O   O19       1.0  0.03684  0.33595  0.50538  1.0000
  O   O20       1.0  0.53682  0.83601  0.38035  1.0000
  O   O21       1.0  0.03683  0.33591  0.75535  1.0000
  O   O22       1.0  0.53681  0.83597  0.63037  1.0000
  O   O23       1.0  0.03679  0.33599  0.00538  1.0000
  O   O24       1.0  0.53678  0.83599  0.88035  1.0000
  O   O25       1.0  0.95983  0.66727  0.25518  1.0000
  O   O26       1.0  0.45982  0.16723  0.13018  1.0000
  O   O27       1.0  0.95977  0.66730  0.50521  1.0000
  O   O28       1.0  0.45982  0.16723  0.38015  1.0000
  O   O29       1.0  0.95981  0.66725  0.75519  1.0000
  O   O30       1.0  0.45985  0.16726  0.63018  1.0000
  O   O31       1.0  0.95983  0.66725  0.00518  1.0000
  O   O32       1.0  0.45982  0.16725  0.88017  1.0000
  O   O33       1.0  0.15789  0.80228  0.38030  1.0000
  O   O34       1.0  0.65788  0.30230  0.25532  1.0000
  O   O35       1.0  0.15786  0.80228  0.63032  1.0000
  O   O36       1.0  0.65791  0.30229  0.50531  1.0000
  O   O37       1.0  0.15790  0.80226  0.88031  1.0000
  O   O38       1.0  0.65790  0.30227  0.75531  1.0000
  O   O39       1.0  0.15792  0.80224  0.13032  1.0000
  O   O40       1.0  0.65790  0.30229  0.00531  1.0000
  O   O41       1.0  0.84740  0.20664  0.13025  1.0000
  O   O42       1.0  0.34742  0.70658  0.00526  1.0000
  O   O43       1.0  0.84740  0.20664  0.38025  1.0000
  O   O44       1.0  0.34741  0.70660  0.25527  1.0000
  O   O45       1.0  0.84743  0.20659  0.63027  1.0000
  O   O46       1.0  0.34735  0.70661  0.50528  1.0000
  O   O47       1.0  0.84739  0.20657  0.88028  1.0000
  O   O48       1.0  0.34740  0.70662  0.75525  1.0000
  O   O49       1.0  0.29408  0.34500  0.25529  1.0000
  O   O50       1.0  0.79408  0.84504  0.13029  1.0000
  O   O51       1.0  0.29406  0.34502  0.50531  1.0000
  O   O52       1.0  0.79407  0.84505  0.38030  1.0000
  O   O53       1.0  0.29409  0.34501  0.75527  1.0000
  O   O54       1.0  0.79405  0.84501  0.63031  1.0000
  O   O55       1.0  0.29410  0.34501  0.00528  1.0000
  O   O56       1.0  0.79405  0.84502  0.88030  1.0000
  O   O57       1.0  0.70118  0.65128  0.25527  1.0000
  O   O58       1.0  0.20117  0.15124  0.13026  1.0000
  O   O59       1.0  0.70117  0.65125  0.50526  1.0000
  O   O60       1.0  0.20117  0.15125  0.38024  1.0000
  O   O61       1.0  0.70115  0.65123  0.75526  1.0000
  O   O62       1.0  0.20117  0.15127  0.63025  1.0000
  O   O63       1.0  0.70117  0.65126  0.00527  1.0000
  O   O64       1.0  0.20119  0.15124  0.88024  1.0000
