data_image0
_chemical_formula_structural       Ti16Si32O96
_chemical_formula_sum              "Ti16 Si32 O96"
_cell_length_a       9.69898
_cell_length_b       11.1151
_cell_length_c       18.9212
_cell_angle_alpha    90.0012
_cell_angle_beta     89.9994
_cell_angle_gamma    89.9987

_space_group_name_H-M_alt    "P 1"
_space_group_IT_number       1

loop_
  _space_group_symop_operation_xyz
  'x, y, z'

loop_
  _atom_site_type_symbol
  _atom_site_label
  _atom_site_symmetry_multiplicity
  _atom_site_fract_x
  _atom_site_fract_y
  _atom_site_fract_z
  _atom_site_occupancy
  Ti  Ti1       1.0  0.23771  0.51492  0.37465  1.0000
  Ti  Ti2       1.0  0.73769  0.51497  0.37465  1.0000
  Ti  Ti3       1.0  0.26346  0.48583  0.62579  1.0000
  Ti  Ti4       1.0  0.76338  0.48586  0.62579  1.0000
  Ti  Ti5       1.0  0.48766  0.48587  0.12580  1.0000
  Ti  Ti6       1.0  0.98765  0.48587  0.12579  1.0000
  Ti  Ti7       1.0  0.01305  0.51512  0.87464  1.0000
  Ti  Ti8       1.0  0.51306  0.51509  0.87464  1.0000
  Ti  Ti9       1.0  0.23761  0.01502  0.12583  1.0000
  Ti  Ti10      1.0  0.73760  0.01508  0.12582  1.0000
  Ti  Ti11      1.0  0.26335  0.98591  0.87470  1.0000
  Ti  Ti12      1.0  0.76329  0.98595  0.87470  1.0000
  Ti  Ti13      1.0  0.48770  0.98592  0.37470  1.0000
  Ti  Ti14      1.0  0.98768  0.98592  0.37469  1.0000
  Ti  Ti15      1.0  0.01316  0.01517  0.62584  1.0000
  Ti  Ti16      1.0  0.51320  0.01519  0.62583  1.0000
  Si  Si1       1.0  0.32169  0.16956  0.26281  1.0000
  Si  Si2       1.0  0.82168  0.16957  0.26282  1.0000
  Si  Si3       1.0  0.35918  0.33037  0.99013  1.0000
  Si  Si4       1.0  0.85918  0.33040  0.99013  1.0000
  Si  Si5       1.0  0.39184  0.33033  0.49011  1.0000
  Si  Si6       1.0  0.89181  0.33033  0.49010  1.0000
  Si  Si7       1.0  0.42901  0.66965  0.73770  1.0000
  Si  Si8       1.0  0.92901  0.66968  0.73769  1.0000
  Si  Si9       1.0  0.07183  0.83139  0.23775  1.0000
  Si  Si10      1.0  0.57180  0.83135  0.23774  1.0000
  Si  Si11      1.0  0.17914  0.33142  0.76283  1.0000
  Si  Si12      1.0  0.67916  0.33139  0.76285  1.0000
  Si  Si13      1.0  0.10917  0.17061  0.99015  1.0000
  Si  Si14      1.0  0.60918  0.17063  0.99015  1.0000
  Si  Si15      1.0  0.35943  0.83034  0.51039  1.0000
  Si  Si16      1.0  0.85944  0.83035  0.51038  1.0000
  Si  Si17      1.0  0.39161  0.83035  0.01035  1.0000
  Si  Si18      1.0  0.89162  0.83035  0.01035  1.0000
  Si  Si19      1.0  0.42914  0.16966  0.76283  1.0000
  Si  Si20      1.0  0.92911  0.16966  0.76284  1.0000
  Si  Si21      1.0  0.17899  0.83150  0.73772  1.0000
  Si  Si22      1.0  0.67897  0.83149  0.73772  1.0000
  Si  Si23      1.0  0.32185  0.66950  0.23772  1.0000
  Si  Si24      1.0  0.82186  0.66955  0.23772  1.0000
  Si  Si25      1.0  0.14165  0.67054  0.01034  1.0000
  Si  Si26      1.0  0.64159  0.67055  0.01035  1.0000
  Si  Si27      1.0  0.07166  0.33134  0.26281  1.0000
  Si  Si28      1.0  0.57167  0.33136  0.26281  1.0000
  Si  Si29      1.0  0.14181  0.17053  0.49016  1.0000
  Si  Si30      1.0  0.64181  0.17056  0.49017  1.0000
  Si  Si31      1.0  0.10947  0.67056  0.51038  1.0000
  Si  Si32      1.0  0.60943  0.67060  0.51035  1.0000
  O   O1        1.0  0.38240  0.07448  0.82289  1.0000
  O   O2        1.0  0.88234  0.07450  0.82290  1.0000
  O   O3        1.0  0.15072  0.57947  0.57360  1.0000
  O   O4        1.0  0.65062  0.57954  0.57360  1.0000
  O   O5        1.0  0.11853  0.92645  0.17762  1.0000
  O   O6        1.0  0.61857  0.92639  0.17759  1.0000
  O   O7        1.0  0.38981  0.89254  0.43460  1.0000
  O   O8        1.0  0.88976  0.89257  0.43460  1.0000
  O   O9        1.0  0.13995  0.60835  0.43459  1.0000
  O   O10       1.0  0.63986  0.60839  0.43456  1.0000
  O   O11       1.0  0.44796  0.70619  0.51680  1.0000
  O   O12       1.0  0.94804  0.70626  0.51680  1.0000
  O   O13       1.0  0.41161  0.10853  0.68529  1.0000
  O   O14       1.0  0.91151  0.10849  0.68532  1.0000
  O   O15       1.0  0.08917  0.39261  0.18532  1.0000
  O   O16       1.0  0.58918  0.39264  0.18533  1.0000
  O   O17       1.0  0.38966  0.39263  0.06589  1.0000
  O   O18       1.0  0.88962  0.39257  0.06592  1.0000
  O   O19       1.0  0.41139  0.60838  0.81518  1.0000
  O   O20       1.0  0.91133  0.60833  0.81517  1.0000
  O   O21       1.0  0.13220  0.92663  0.67766  1.0000
  O   O22       1.0  0.63217  0.92663  0.67766  1.0000
  O   O23       1.0  0.36134  0.89264  0.93459  1.0000
  O   O24       1.0  0.86134  0.89270  0.93460  1.0000
  O   O25       1.0  0.35047  0.42130  0.42685  1.0000
  O   O26       1.0  0.85038  0.42130  0.42686  1.0000
  O   O27       1.0  0.16180  0.39259  0.68530  1.0000
  O   O28       1.0  0.66179  0.39256  0.68531  1.0000
  O   O29       1.0  0.36862  0.57454  0.17755  1.0000
  O   O30       1.0  0.86862  0.57461  0.17752  1.0000
  O   O31       1.0  0.15060  0.07953  0.92693  1.0000
  O   O32       1.0  0.65055  0.07959  0.92692  1.0000
  O   O33       1.0  0.13224  0.42662  0.82286  1.0000
  O   O34       1.0  0.63221  0.42658  0.82286  1.0000
  O   O35       1.0  0.08940  0.20874  0.77135  1.0000
  O   O36       1.0  0.58940  0.20876  0.77138  1.0000
  O   O37       1.0  0.16142  0.20869  0.27131  1.0000
  O   O38       1.0  0.66136  0.20863  0.27132  1.0000
  O   O39       1.0  0.30327  0.20620  0.48376  1.0000
  O   O40       1.0  0.80328  0.20617  0.48378  1.0000
  O   O41       1.0  0.36153  0.39262  0.56587  1.0000
  O   O42       1.0  0.86146  0.39265  0.56586  1.0000
  O   O43       1.0  0.33934  0.10824  0.18533  1.0000
  O   O44       1.0  0.83929  0.10830  0.18533  1.0000
  O   O45       1.0  0.40065  0.92143  0.57362  1.0000
  O   O46       1.0  0.90061  0.92145  0.57361  1.0000
  O   O47       1.0  0.08926  0.70885  0.72923  1.0000
  O   O48       1.0  0.58927  0.70881  0.72921  1.0000
  O   O49       1.0  0.11108  0.60838  0.93455  1.0000
  O   O50       1.0  0.61112  0.60835  0.93456  1.0000
  O   O51       1.0  0.33952  0.60807  0.31516  1.0000
  O   O52       1.0  0.83939  0.60812  0.31516  1.0000
  O   O53       1.0  0.35028  0.92132  0.07361  1.0000
  O   O54       1.0  0.85028  0.92135  0.07362  1.0000
  O   O55       1.0  0.13958  0.10836  0.06594  1.0000
  O   O56       1.0  0.63955  0.10843  0.06595  1.0000
  O   O57       1.0  0.10052  0.07947  0.42691  1.0000
  O   O58       1.0  0.60050  0.07948  0.42694  1.0000
  O   O59       1.0  0.33941  0.29232  0.77150  1.0000
  O   O60       1.0  0.83945  0.29237  0.77152  1.0000
  O   O61       1.0  0.11844  0.42645  0.32290  1.0000
  O   O62       1.0  0.61853  0.42641  0.32292  1.0000
  O   O63       1.0  0.41139  0.29225  0.27135  1.0000
  O   O64       1.0  0.91140  0.29224  0.27135  1.0000
  O   O65       1.0  0.41152  0.79222  0.22925  1.0000
  O   O66       1.0  0.91158  0.79223  0.22925  1.0000
  O   O67       1.0  0.40042  0.42140  0.92688  1.0000
  O   O68       1.0  0.90044  0.42144  0.92690  1.0000
  O   O69       1.0  0.11132  0.10837  0.56595  1.0000
  O   O70       1.0  0.61139  0.10837  0.56596  1.0000
  O   O71       1.0  0.10049  0.57945  0.07359  1.0000
  O   O72       1.0  0.60044  0.57945  0.07359  1.0000
  O   O73       1.0  0.16160  0.70873  0.22926  1.0000
  O   O74       1.0  0.66157  0.70867  0.22923  1.0000
  O   O75       1.0  0.05327  0.29466  0.48371  1.0000
  O   O76       1.0  0.55330  0.29471  0.48371  1.0000
  O   O77       1.0  0.19769  0.29478  0.98377  1.0000
  O   O78       1.0  0.69772  0.29477  0.98377  1.0000
  O   O79       1.0  0.33918  0.79224  0.72912  1.0000
  O   O80       1.0  0.83920  0.79230  0.72908  1.0000
  O   O81       1.0  0.19801  0.79469  0.51682  1.0000
  O   O82       1.0  0.69803  0.79467  0.51684  1.0000
  O   O83       1.0  0.30310  0.70619  0.01668  1.0000
  O   O84       1.0  0.80305  0.70621  0.01668  1.0000
  O   O85       1.0  0.05305  0.79464  0.01683  1.0000
  O   O86       1.0  0.55304  0.79469  0.01680  1.0000
  O   O87       1.0  0.16160  0.89276  0.81522  1.0000
  O   O88       1.0  0.66162  0.89270  0.81523  1.0000
  O   O89       1.0  0.36860  0.07455  0.32293  1.0000
  O   O90       1.0  0.86859  0.07455  0.32294  1.0000
  O   O91       1.0  0.44768  0.20619  0.98373  1.0000
  O   O92       1.0  0.94768  0.20622  0.98372  1.0000
  O   O93       1.0  0.08940  0.89281  0.31519  1.0000
  O   O94       1.0  0.58943  0.89274  0.31520  1.0000
  O   O95       1.0  0.38244  0.57446  0.67761  1.0000
  O   O96       1.0  0.88243  0.57453  0.67757  1.0000
