data_image0
_chemical_formula_structural       Zr24Ti24O96
_chemical_formula_sum              "Zr24 Ti24 O96"
_cell_length_a       14.2186
_cell_length_b       10.2141
_cell_length_c       11.2916
_cell_angle_alpha    89.999
_cell_angle_beta     90.0028
_cell_angle_gamma    90.0025

_space_group_name_H-M_alt    "P 1"
_space_group_IT_number       1

loop_
  _space_group_symop_operation_xyz
  'x, y, z'

loop_
  _atom_site_type_symbol
  _atom_site_label
  _atom_site_symmetry_multiplicity
  _atom_site_fract_x
  _atom_site_fract_y
  _atom_site_fract_z
  _atom_site_occupancy
  Zr  Zr1       1.0  0.00030  0.25045  0.21125  1.0000
  Zr  Zr2       1.0  0.00036  0.25043  0.71126  1.0000
  Zr  Zr3       1.0  0.00030  0.75054  0.21127  1.0000
  Zr  Zr4       1.0  0.00036  0.75047  0.71135  1.0000
  Zr  Zr5       1.0  0.33371  0.25048  0.21139  1.0000
  Zr  Zr6       1.0  0.33366  0.25052  0.71120  1.0000
  Zr  Zr7       1.0  0.33369  0.75045  0.21139  1.0000
  Zr  Zr8       1.0  0.33366  0.75047  0.71130  1.0000
  Zr  Zr9       1.0  0.66698  0.25050  0.21127  1.0000
  Zr  Zr10      1.0  0.66697  0.25051  0.71135  1.0000
  Zr  Zr11      1.0  0.66702  0.75038  0.21128  1.0000
  Zr  Zr12      1.0  0.66701  0.75050  0.71146  1.0000
  Zr  Zr13      1.0  0.16698  0.00049  0.28947  1.0000
  Zr  Zr14      1.0  0.16703  0.00048  0.78947  1.0000
  Zr  Zr15      1.0  0.16697  0.50050  0.28951  1.0000
  Zr  Zr16      1.0  0.16704  0.50043  0.78956  1.0000
  Zr  Zr17      1.0  0.50042  0.00038  0.28957  1.0000
  Zr  Zr18      1.0  0.50030  0.00053  0.78956  1.0000
  Zr  Zr19      1.0  0.50036  0.50045  0.28962  1.0000
  Zr  Zr20      1.0  0.50034  0.50051  0.78954  1.0000
  Zr  Zr21      1.0  0.83360  0.00049  0.28953  1.0000
  Zr  Zr22      1.0  0.83366  0.00053  0.78961  1.0000
  Zr  Zr23      1.0  0.83370  0.50041  0.28949  1.0000
  Zr  Zr24      1.0  0.83377  0.50036  0.78956  1.0000
  Ti  Ti1       1.0  0.00034  0.00042  0.03605  1.0000
  Ti  Ti2       1.0  0.00025  0.00036  0.53608  1.0000
  Ti  Ti3       1.0  0.00036  0.50043  0.03614  1.0000
  Ti  Ti4       1.0  0.00035  0.50043  0.53613  1.0000
  Ti  Ti5       1.0  0.33361  0.00044  0.03612  1.0000
  Ti  Ti6       1.0  0.33364  0.00042  0.53604  1.0000
  Ti  Ti7       1.0  0.33365  0.50044  0.03619  1.0000
  Ti  Ti8       1.0  0.33363  0.50043  0.53611  1.0000
  Ti  Ti9       1.0  0.66695  0.00036  0.03609  1.0000
  Ti  Ti10      1.0  0.66705  0.00041  0.53615  1.0000
  Ti  Ti11      1.0  0.66696  0.50039  0.03607  1.0000
  Ti  Ti12      1.0  0.66704  0.50046  0.53615  1.0000
  Ti  Ti13      1.0  0.16695  0.25043  0.46466  1.0000
  Ti  Ti14      1.0  0.16705  0.25041  0.96473  1.0000
  Ti  Ti15      1.0  0.16693  0.75047  0.46470  1.0000
  Ti  Ti16      1.0  0.16702  0.75044  0.96472  1.0000
  Ti  Ti17      1.0  0.50040  0.25036  0.46473  1.0000
  Ti  Ti18      1.0  0.50027  0.25047  0.96473  1.0000
  Ti  Ti19      1.0  0.50036  0.75038  0.46477  1.0000
  Ti  Ti20      1.0  0.50027  0.75047  0.96472  1.0000
  Ti  Ti21      1.0  0.83362  0.25047  0.46471  1.0000
  Ti  Ti22      1.0  0.83364  0.25044  0.96475  1.0000
  Ti  Ti23      1.0  0.83363  0.75036  0.46466  1.0000
  Ti  Ti24      1.0  0.83365  0.75035  0.96466  1.0000
  O   O1        1.0  0.24611  0.08903  0.43765  1.0000
  O   O2        1.0  0.24604  0.08895  0.93776  1.0000
  O   O3        1.0  0.24602  0.58900  0.43779  1.0000
  O   O4        1.0  0.24604  0.58899  0.93782  1.0000
  O   O5        1.0  0.57943  0.08888  0.43780  1.0000
  O   O6        1.0  0.57935  0.08900  0.93778  1.0000
  O   O7        1.0  0.57938  0.58895  0.43782  1.0000
  O   O8        1.0  0.57940  0.58906  0.93774  1.0000
  O   O9        1.0  0.91267  0.08899  0.43775  1.0000
  O   O10       1.0  0.91269  0.08896  0.93778  1.0000
  O   O11       1.0  0.91269  0.58892  0.43781  1.0000
  O   O12       1.0  0.91274  0.58894  0.93776  1.0000
  O   O13       1.0  0.25466  0.33899  0.06309  1.0000
  O   O14       1.0  0.25467  0.33899  0.56302  1.0000
  O   O15       1.0  0.25462  0.83899  0.06313  1.0000
  O   O16       1.0  0.25462  0.83899  0.56308  1.0000
  O   O17       1.0  0.58797  0.33895  0.06308  1.0000
  O   O18       1.0  0.58802  0.33894  0.56308  1.0000
  O   O19       1.0  0.58791  0.83895  0.06314  1.0000
  O   O20       1.0  0.58801  0.83893  0.56315  1.0000
  O   O21       1.0  0.92127  0.33900  0.06314  1.0000
  O   O22       1.0  0.92130  0.33893  0.56310  1.0000
  O   O23       1.0  0.92131  0.83893  0.06301  1.0000
  O   O24       1.0  0.92136  0.83884  0.56303  1.0000
  O   O25       1.0  0.07935  0.16199  0.06305  1.0000
  O   O26       1.0  0.07937  0.16199  0.56303  1.0000
  O   O27       1.0  0.07940  0.66201  0.06313  1.0000
  O   O28       1.0  0.07937  0.66202  0.56308  1.0000
  O   O29       1.0  0.41269  0.16206  0.06311  1.0000
  O   O30       1.0  0.41276  0.16193  0.56309  1.0000
  O   O31       1.0  0.41273  0.66204  0.06317  1.0000
  O   O32       1.0  0.41270  0.66201  0.56313  1.0000
  O   O33       1.0  0.74606  0.16188  0.06317  1.0000
  O   O34       1.0  0.74606  0.16202  0.56318  1.0000
  O   O35       1.0  0.74603  0.66192  0.06311  1.0000
  O   O36       1.0  0.74606  0.66199  0.56313  1.0000
  O   O37       1.0  0.08799  0.41201  0.43775  1.0000
  O   O38       1.0  0.08804  0.41202  0.93780  1.0000
  O   O39       1.0  0.08794  0.91203  0.43771  1.0000
  O   O40       1.0  0.08798  0.91199  0.93769  1.0000
  O   O41       1.0  0.42135  0.41192  0.43783  1.0000
  O   O42       1.0  0.42136  0.41211  0.93788  1.0000
  O   O43       1.0  0.42132  0.91195  0.43778  1.0000
  O   O44       1.0  0.42126  0.91203  0.93778  1.0000
  O   O45       1.0  0.75468  0.41203  0.43779  1.0000
  O   O46       1.0  0.75466  0.41198  0.93777  1.0000
  O   O47       1.0  0.75465  0.91198  0.43780  1.0000
  O   O48       1.0  0.75457  0.91192  0.93775  1.0000
  O   O49       1.0  0.09476  0.17039  0.32486  1.0000
  O   O50       1.0  0.09476  0.17031  0.82490  1.0000
  O   O51       1.0  0.09469  0.67035  0.32491  1.0000
  O   O52       1.0  0.09479  0.67029  0.82493  1.0000
  O   O53       1.0  0.42818  0.17025  0.32490  1.0000
  O   O54       1.0  0.42806  0.17042  0.82493  1.0000
  O   O55       1.0  0.42806  0.67022  0.32502  1.0000
  O   O56       1.0  0.42806  0.67037  0.82496  1.0000
  O   O57       1.0  0.76135  0.17032  0.32496  1.0000
  O   O58       1.0  0.76141  0.17037  0.82497  1.0000
  O   O59       1.0  0.76140  0.67026  0.32493  1.0000
  O   O60       1.0  0.76146  0.67023  0.82492  1.0000
  O   O61       1.0  0.07260  0.42026  0.17594  1.0000
  O   O62       1.0  0.07271  0.42022  0.67591  1.0000
  O   O63       1.0  0.07255  0.92034  0.17588  1.0000
  O   O64       1.0  0.07256  0.92034  0.67593  1.0000
  O   O65       1.0  0.40594  0.42030  0.17604  1.0000
  O   O66       1.0  0.40595  0.42035  0.67592  1.0000
  O   O67       1.0  0.40590  0.92037  0.17598  1.0000
  O   O68       1.0  0.40588  0.92040  0.67595  1.0000
  O   O69       1.0  0.73928  0.42027  0.17590  1.0000
  O   O70       1.0  0.73929  0.42029  0.67597  1.0000
  O   O71       1.0  0.73923  0.92022  0.17595  1.0000
  O   O72       1.0  0.73933  0.92025  0.67597  1.0000
  O   O73       1.0  0.26136  0.08074  0.17589  1.0000
  O   O74       1.0  0.26135  0.08070  0.67583  1.0000
  O   O75       1.0  0.26143  0.58068  0.17601  1.0000
  O   O76       1.0  0.26144  0.58062  0.67600  1.0000
  O   O77       1.0  0.59475  0.08062  0.17595  1.0000
  O   O78       1.0  0.59481  0.08060  0.67603  1.0000
  O   O79       1.0  0.59475  0.58054  0.17596  1.0000
  O   O80       1.0  0.59475  0.58069  0.67599  1.0000
  O   O81       1.0  0.92805  0.08061  0.17593  1.0000
  O   O82       1.0  0.92803  0.08064  0.67592  1.0000
  O   O83       1.0  0.92811  0.58067  0.17597  1.0000
  O   O84       1.0  0.92818  0.58059  0.67603  1.0000
  O   O85       1.0  0.23928  0.33076  0.32490  1.0000
  O   O86       1.0  0.23935  0.33066  0.82497  1.0000
  O   O87       1.0  0.23923  0.83071  0.32490  1.0000
  O   O88       1.0  0.23929  0.83067  0.82493  1.0000
  O   O89       1.0  0.57266  0.33061  0.32495  1.0000
  O   O90       1.0  0.57260  0.33072  0.82491  1.0000
  O   O91       1.0  0.57263  0.83050  0.32492  1.0000
  O   O92       1.0  0.57259  0.83076  0.82494  1.0000
  O   O93       1.0  0.90594  0.33063  0.32491  1.0000
  O   O94       1.0  0.90603  0.33060  0.82496  1.0000
  O   O95       1.0  0.90590  0.83068  0.32487  1.0000
  O   O96       1.0  0.90594  0.83069  0.82488  1.0000
