data_image0
_chemical_formula_structural       Cs36Al36O72
_chemical_formula_sum              "Cs36 Al36 O72"
_cell_length_a       15.1999
_cell_length_b       14.0705
_cell_length_c       11.4905
_cell_angle_alpha    89.9999
_cell_angle_beta     79.1063
_cell_angle_gamma    89.9985

_space_group_name_H-M_alt    "P 1"
_space_group_IT_number       1

loop_
  _space_group_symop_operation_xyz
  'x, y, z'

loop_
  _atom_site_type_symbol
  _atom_site_label
  _atom_site_symmetry_multiplicity
  _atom_site_fract_x
  _atom_site_fract_y
  _atom_site_fract_z
  _atom_site_occupancy
  Cs  Cs1       1.0  0.27794  0.20856  0.55568  1.0000
  Cs  Cs2       1.0  0.27802  0.20892  0.05574  1.0000
  Cs  Cs3       1.0  0.38918  0.54200  0.77823  1.0000
  Cs  Cs4       1.0  0.38933  0.54229  0.27810  1.0000
  Cs  Cs5       1.0  0.50010  0.87529  0.00013  1.0000
  Cs  Cs6       1.0  0.50024  0.87534  0.50066  1.0000
  Cs  Cs7       1.0  0.61117  0.20881  0.72294  1.0000
  Cs  Cs8       1.0  0.61151  0.20869  0.22261  1.0000
  Cs  Cs9       1.0  0.72248  0.54198  0.94512  1.0000
  Cs  Cs10      1.0  0.72242  0.54210  0.44494  1.0000
  Cs  Cs11      1.0  0.83368  0.87533  0.66715  1.0000
  Cs  Cs12      1.0  0.83373  0.87546  0.16720  1.0000
  Cs  Cs13      1.0  0.94458  0.20865  0.88946  1.0000
  Cs  Cs14      1.0  0.94476  0.20863  0.38956  1.0000
  Cs  Cs15      1.0  0.05592  0.54191  0.61143  1.0000
  Cs  Cs16      1.0  0.05589  0.54206  0.11138  1.0000
  Cs  Cs17      1.0  0.16694  0.87529  0.83386  1.0000
  Cs  Cs18      1.0  0.16690  0.87528  0.33391  1.0000
  Cs  Cs19      1.0  0.16703  0.12527  0.33349  1.0000
  Cs  Cs20      1.0  0.16684  0.12543  0.83361  1.0000
  Cs  Cs21      1.0  0.27813  0.45852  0.55592  1.0000
  Cs  Cs22      1.0  0.27811  0.45888  0.05621  1.0000
  Cs  Cs23      1.0  0.38906  0.79200  0.77815  1.0000
  Cs  Cs24      1.0  0.38932  0.79223  0.27814  1.0000
  Cs  Cs25      1.0  0.50033  0.12529  0.50054  1.0000
  Cs  Cs26      1.0  0.50022  0.12534  0.00047  1.0000
  Cs  Cs27      1.0  0.61141  0.45871  0.72250  1.0000
  Cs  Cs28      1.0  0.61133  0.45859  0.22291  1.0000
  Cs  Cs29      1.0  0.72264  0.79202  0.44498  1.0000
  Cs  Cs30      1.0  0.72239  0.79216  0.94512  1.0000
  Cs  Cs31      1.0  0.83335  0.12542  0.66721  1.0000
  Cs  Cs32      1.0  0.83360  0.12550  0.16707  1.0000
  Cs  Cs33      1.0  0.94478  0.45874  0.38916  1.0000
  Cs  Cs34      1.0  0.94459  0.45858  0.88919  1.0000
  Cs  Cs35      1.0  0.05581  0.79187  0.61158  1.0000
  Cs  Cs36      1.0  0.05599  0.79203  0.11145  1.0000
  Al  Al1       1.0  0.38905  0.29202  0.77827  1.0000
  Al  Al2       1.0  0.38921  0.29211  0.27823  1.0000
  Al  Al3       1.0  0.50026  0.62541  0.00046  1.0000
  Al  Al4       1.0  0.50023  0.62536  0.50048  1.0000
  Al  Al5       1.0  0.61143  0.95871  0.22272  1.0000
  Al  Al6       1.0  0.61146  0.95868  0.72261  1.0000
  Al  Al7       1.0  0.72246  0.29205  0.94491  1.0000
  Al  Al8       1.0  0.72250  0.29206  0.44495  1.0000
  Al  Al9       1.0  0.83358  0.62530  0.16721  1.0000
  Al  Al10      1.0  0.83359  0.62531  0.66719  1.0000
  Al  Al11      1.0  0.94477  0.95868  0.88939  1.0000
  Al  Al12      1.0  0.94485  0.95865  0.38934  1.0000
  Al  Al13      1.0  0.05576  0.29209  0.11159  1.0000
  Al  Al14      1.0  0.05577  0.29211  0.61164  1.0000
  Al  Al15      1.0  0.16697  0.62538  0.83379  1.0000
  Al  Al16      1.0  0.16699  0.62545  0.33385  1.0000
  Al  Al17      1.0  0.27810  0.95879  0.05611  1.0000
  Al  Al18      1.0  0.27804  0.95873  0.55612  1.0000
  Al  Al19      1.0  0.05591  0.04205  0.11154  1.0000
  Al  Al20      1.0  0.05584  0.04204  0.61165  1.0000
  Al  Al21      1.0  0.16696  0.37539  0.33384  1.0000
  Al  Al22      1.0  0.16685  0.37535  0.83382  1.0000
  Al  Al23      1.0  0.27805  0.70872  0.55606  1.0000
  Al  Al24      1.0  0.27803  0.70876  0.05604  1.0000
  Al  Al25      1.0  0.38920  0.04207  0.27836  1.0000
  Al  Al26      1.0  0.38920  0.04199  0.77827  1.0000
  Al  Al27      1.0  0.50020  0.37534  0.50060  1.0000
  Al  Al28      1.0  0.50022  0.37532  0.00039  1.0000
  Al  Al29      1.0  0.61139  0.70861  0.22271  1.0000
  Al  Al30      1.0  0.61140  0.70865  0.72269  1.0000
  Al  Al31      1.0  0.72263  0.04198  0.44495  1.0000
  Al  Al32      1.0  0.72254  0.04197  0.94491  1.0000
  Al  Al33      1.0  0.83353  0.37535  0.16716  1.0000
  Al  Al34      1.0  0.83359  0.37534  0.66717  1.0000
  Al  Al35      1.0  0.94475  0.70857  0.38932  1.0000
  Al  Al36      1.0  0.94471  0.70861  0.88941  1.0000
  O   O1        1.0  0.05605  0.16706  0.11147  1.0000
  O   O2        1.0  0.05584  0.16707  0.61157  1.0000
  O   O3        1.0  0.16717  0.50043  0.33380  1.0000
  O   O4        1.0  0.16686  0.50036  0.83394  1.0000
  O   O5        1.0  0.27808  0.83373  0.55621  1.0000
  O   O6        1.0  0.27795  0.83377  0.05589  1.0000
  O   O7        1.0  0.38921  0.16707  0.27830  1.0000
  O   O8        1.0  0.38932  0.16701  0.77829  1.0000
  O   O9        1.0  0.50024  0.50035  0.50065  1.0000
  O   O10       1.0  0.50021  0.50037  0.00017  1.0000
  O   O11       1.0  0.61150  0.83367  0.22262  1.0000
  O   O12       1.0  0.61146  0.83366  0.72243  1.0000
  O   O13       1.0  0.72269  0.16701  0.44485  1.0000
  O   O14       1.0  0.72272  0.16702  0.94487  1.0000
  O   O15       1.0  0.83354  0.50032  0.16729  1.0000
  O   O16       1.0  0.83362  0.50033  0.66726  1.0000
  O   O17       1.0  0.94502  0.83361  0.38907  1.0000
  O   O18       1.0  0.94484  0.83365  0.88930  1.0000
  O   O19       1.0  0.16703  0.00048  0.08383  1.0000
  O   O20       1.0  0.16699  0.00047  0.58397  1.0000
  O   O21       1.0  0.27808  0.33371  0.30589  1.0000
  O   O22       1.0  0.27790  0.33349  0.80599  1.0000
  O   O23       1.0  0.38912  0.66703  0.52818  1.0000
  O   O24       1.0  0.38916  0.66715  0.02848  1.0000
  O   O25       1.0  0.50032  0.00044  0.25056  1.0000
  O   O26       1.0  0.50030  0.00022  0.75023  1.0000
  O   O27       1.0  0.61138  0.33383  0.47284  1.0000
  O   O28       1.0  0.61127  0.33351  0.97263  1.0000
  O   O29       1.0  0.72246  0.66691  0.19502  1.0000
  O   O30       1.0  0.72245  0.66688  0.69513  1.0000
  O   O31       1.0  0.83368  0.00016  0.41734  1.0000
  O   O32       1.0  0.83359  0.00017  0.91730  1.0000
  O   O33       1.0  0.94458  0.33358  0.13940  1.0000
  O   O34       1.0  0.94470  0.33376  0.63934  1.0000
  O   O35       1.0  0.05578  0.66678  0.36160  1.0000
  O   O36       1.0  0.05588  0.66710  0.86171  1.0000
  O   O37       1.0  0.00038  0.00047  0.00038  1.0000
  O   O38       1.0  0.00032  0.00026  0.50054  1.0000
  O   O39       1.0  0.11126  0.33387  0.22276  1.0000
  O   O40       1.0  0.11118  0.33385  0.72280  1.0000
  O   O41       1.0  0.22240  0.66726  0.44499  1.0000
  O   O42       1.0  0.22249  0.66708  0.94493  1.0000
  O   O43       1.0  0.33371  0.00030  0.16726  1.0000
  O   O44       1.0  0.33353  0.00041  0.66725  1.0000
  O   O45       1.0  0.44462  0.33377  0.38947  1.0000
  O   O46       1.0  0.44463  0.33364  0.88935  1.0000
  O   O47       1.0  0.55575  0.66706  0.11163  1.0000
  O   O48       1.0  0.55587  0.66701  0.61152  1.0000
  O   O49       1.0  0.66704  0.00034  0.33384  1.0000
  O   O50       1.0  0.66696  0.00037  0.83379  1.0000
  O   O51       1.0  0.77800  0.33388  0.05594  1.0000
  O   O52       1.0  0.77800  0.33370  0.55609  1.0000
  O   O53       1.0  0.88920  0.66683  0.27827  1.0000
  O   O54       1.0  0.88925  0.66685  0.77827  1.0000
  O   O55       1.0  0.00031  0.00056  0.25051  1.0000
  O   O56       1.0  0.00029  0.00044  0.75054  1.0000
  O   O57       1.0  0.11139  0.33387  0.47282  1.0000
  O   O58       1.0  0.11134  0.33378  0.97273  1.0000
  O   O59       1.0  0.22254  0.66701  0.69491  1.0000
  O   O60       1.0  0.22248  0.66718  0.19495  1.0000
  O   O61       1.0  0.33365  0.00056  0.41733  1.0000
  O   O62       1.0  0.33377  0.00042  0.91727  1.0000
  O   O63       1.0  0.44458  0.33372  0.63943  1.0000
  O   O64       1.0  0.44471  0.33394  0.13943  1.0000
  O   O65       1.0  0.55576  0.66686  0.36151  1.0000
  O   O66       1.0  0.55577  0.66729  0.86166  1.0000
  O   O67       1.0  0.66701  0.00050  0.58385  1.0000
  O   O68       1.0  0.66696  0.00054  0.08389  1.0000
  O   O69       1.0  0.77796  0.33367  0.30599  1.0000
  O   O70       1.0  0.77799  0.33369  0.80602  1.0000
  O   O71       1.0  0.88906  0.66708  0.52826  1.0000
  O   O72       1.0  0.88908  0.66704  0.02833  1.0000
