data_image0
_chemical_formula_structural       Ba6Sr6Y24O48
_chemical_formula_sum              "Ba6 Sr6 Y24 O48"
_cell_length_a       10.2592
_cell_length_b       10.3048
_cell_length_c       12.0488
_cell_angle_alpha    89.9994
_cell_angle_beta     90.0012
_cell_angle_gamma    90.0008

_space_group_name_H-M_alt    "P 1"
_space_group_IT_number       1

loop_
  _space_group_symop_operation_xyz
  'x, y, z'

loop_
  _atom_site_type_symbol
  _atom_site_label
  _atom_site_symmetry_multiplicity
  _atom_site_fract_x
  _atom_site_fract_y
  _atom_site_fract_z
  _atom_site_occupancy
  Ba  Ba1       1.0  0.25345  0.41722  0.85020  1.0000
  Ba  Ba2       1.0  0.25349  0.08380  0.85024  1.0000
  Ba  Ba3       1.0  0.25343  0.75053  0.85019  1.0000
  Ba  Ba4       1.0  0.75343  0.41719  0.65063  1.0000
  Ba  Ba5       1.0  0.75343  0.08384  0.65065  1.0000
  Ba  Ba6       1.0  0.75341  0.75056  0.65061  1.0000
  Sr  Sr1       1.0  0.74700  0.58384  0.14963  1.0000
  Sr  Sr2       1.0  0.74698  0.25049  0.14966  1.0000
  Sr  Sr3       1.0  0.74697  0.91717  0.14960  1.0000
  Sr  Sr4       1.0  0.24694  0.58389  0.35124  1.0000
  Sr  Sr5       1.0  0.24699  0.25053  0.35118  1.0000
  Sr  Sr6       1.0  0.24696  0.91716  0.35123  1.0000
  Y   Y1        1.0  0.92339  0.41714  0.38744  1.0000
  Y   Y2        1.0  0.92340  0.08384  0.38741  1.0000
  Y   Y3        1.0  0.92332  0.75049  0.38744  1.0000
  Y   Y4        1.0  0.42337  0.41716  0.11335  1.0000
  Y   Y5        1.0  0.42338  0.08386  0.11340  1.0000
  Y   Y6        1.0  0.42340  0.75055  0.11339  1.0000
  Y   Y7        1.0  0.07946  0.58383  0.60623  1.0000
  Y   Y8        1.0  0.07943  0.25048  0.60622  1.0000
  Y   Y9        1.0  0.07943  0.91718  0.60621  1.0000
  Y   Y10       1.0  0.57942  0.58382  0.89462  1.0000
  Y   Y11       1.0  0.57950  0.25050  0.89465  1.0000
  Y   Y12       1.0  0.57950  0.91718  0.89462  1.0000
  Y   Y13       1.0  0.92436  0.41717  0.89340  1.0000
  Y   Y14       1.0  0.92442  0.08384  0.89340  1.0000
  Y   Y15       1.0  0.92443  0.75043  0.89342  1.0000
  Y   Y16       1.0  0.42441  0.41718  0.60739  1.0000
  Y   Y17       1.0  0.42440  0.08387  0.60739  1.0000
  Y   Y18       1.0  0.42436  0.75056  0.60740  1.0000
  Y   Y19       1.0  0.07395  0.58380  0.11633  1.0000
  Y   Y20       1.0  0.07393  0.25051  0.11635  1.0000
  Y   Y21       1.0  0.07394  0.91718  0.11633  1.0000
  Y   Y22       1.0  0.57395  0.58386  0.38443  1.0000
  Y   Y23       1.0  0.57395  0.25056  0.38449  1.0000
  Y   Y24       1.0  0.57391  0.91716  0.38444  1.0000
  O   O1        1.0  0.71062  0.41717  0.32750  1.0000
  O   O2        1.0  0.71061  0.08388  0.32753  1.0000
  O   O3        1.0  0.71058  0.75048  0.32752  1.0000
  O   O4        1.0  0.21064  0.41716  0.17328  1.0000
  O   O5        1.0  0.21061  0.08383  0.17332  1.0000
  O   O6        1.0  0.21061  0.75047  0.17331  1.0000
  O   O7        1.0  0.29072  0.58382  0.66042  1.0000
  O   O8        1.0  0.29073  0.25050  0.66047  1.0000
  O   O9        1.0  0.29072  0.91721  0.66050  1.0000
  O   O10       1.0  0.79074  0.58387  0.84034  1.0000
  O   O11       1.0  0.79074  0.25050  0.84031  1.0000
  O   O12       1.0  0.79073  0.91718  0.84029  1.0000
  O   O13       1.0  0.01924  0.41719  0.71662  1.0000
  O   O14       1.0  0.01928  0.08383  0.71661  1.0000
  O   O15       1.0  0.01929  0.75054  0.71665  1.0000
  O   O16       1.0  0.51929  0.41718  0.78416  1.0000
  O   O17       1.0  0.51933  0.08381  0.78416  1.0000
  O   O18       1.0  0.51922  0.75054  0.78420  1.0000
  O   O19       1.0  0.98445  0.58377  0.28379  1.0000
  O   O20       1.0  0.98439  0.25049  0.28373  1.0000
  O   O21       1.0  0.98442  0.91715  0.28374  1.0000
  O   O22       1.0  0.48450  0.58388  0.21698  1.0000
  O   O23       1.0  0.48446  0.25051  0.21700  1.0000
  O   O24       1.0  0.48446  0.91716  0.21703  1.0000
  O   O25       1.0  0.62366  0.41714  0.02371  1.0000
  O   O26       1.0  0.62356  0.08382  0.02369  1.0000
  O   O27       1.0  0.62361  0.75053  0.02368  1.0000
  O   O28       1.0  0.12358  0.41712  0.47717  1.0000
  O   O29       1.0  0.12357  0.08380  0.47715  1.0000
  O   O30       1.0  0.12350  0.75053  0.47717  1.0000
  O   O31       1.0  0.38335  0.58386  0.98574  1.0000
  O   O32       1.0  0.38335  0.25051  0.98574  1.0000
  O   O33       1.0  0.38334  0.91719  0.98571  1.0000
  O   O34       1.0  0.88327  0.58385  0.51512  1.0000
  O   O35       1.0  0.88335  0.25047  0.51511  1.0000
  O   O36       1.0  0.88328  0.91719  0.51510  1.0000
  O   O37       1.0  0.92336  0.41718  0.08079  1.0000
  O   O38       1.0  0.92339  0.08386  0.08080  1.0000
  O   O39       1.0  0.92335  0.75050  0.08080  1.0000
  O   O40       1.0  0.42332  0.41724  0.42005  1.0000
  O   O41       1.0  0.42336  0.08388  0.42002  1.0000
  O   O42       1.0  0.42334  0.75049  0.42003  1.0000
  O   O43       1.0  0.06917  0.58384  0.93011  1.0000
  O   O44       1.0  0.06918  0.25049  0.93010  1.0000
  O   O45       1.0  0.06920  0.91716  0.93016  1.0000
  O   O46       1.0  0.56918  0.58380  0.57070  1.0000
  O   O47       1.0  0.56915  0.25055  0.57065  1.0000
  O   O48       1.0  0.56915  0.91717  0.57067  1.0000
