data_image0
_chemical_formula_structural       Li16In16Ge16O64
_chemical_formula_sum              "Li16 In16 Ge16 O64"
_cell_length_a       10.0069
_cell_length_b       12.1688
_cell_length_c       10.754
_cell_angle_alpha    90.0028
_cell_angle_beta     90.0047
_cell_angle_gamma    90.0012

_space_group_name_H-M_alt    "P 1"
_space_group_IT_number       1

loop_
  _space_group_symop_operation_xyz
  'x, y, z'

loop_
  _atom_site_type_symbol
  _atom_site_label
  _atom_site_symmetry_multiplicity
  _atom_site_fract_x
  _atom_site_fract_y
  _atom_site_fract_z
  _atom_site_occupancy
  Li  Li1       1.0  0.00050  0.00019  0.00025  1.0000
  Li  Li2       1.0  0.00057  0.50025  0.00033  1.0000
  Li  Li3       1.0  0.50050  0.00034  0.00043  1.0000
  Li  Li4       1.0  0.50056  0.50036  0.00031  1.0000
  Li  Li5       1.0  0.25042  0.00034  0.50039  1.0000
  Li  Li6       1.0  0.25047  0.50026  0.50022  1.0000
  Li  Li7       1.0  0.75037  0.00043  0.50037  1.0000
  Li  Li8       1.0  0.75042  0.50046  0.50044  1.0000
  Li  Li9       1.0  0.00038  0.25016  0.00052  1.0000
  Li  Li10      1.0  0.00030  0.75036  0.00039  1.0000
  Li  Li11      1.0  0.50039  0.25035  0.00057  1.0000
  Li  Li12      1.0  0.50036  0.75041  0.00044  1.0000
  Li  Li13      1.0  0.25058  0.25025  0.50050  1.0000
  Li  Li14      1.0  0.25057  0.75029  0.50042  1.0000
  Li  Li15      1.0  0.75061  0.25045  0.50035  1.0000
  Li  Li16      1.0  0.75061  0.75049  0.50034  1.0000
  In  In1       1.0  0.00452  0.37540  0.27180  1.0000
  In  In2       1.0  0.00450  0.87539  0.27179  1.0000
  In  In3       1.0  0.50451  0.37543  0.27182  1.0000
  In  In4       1.0  0.50446  0.87544  0.27186  1.0000
  In  In5       1.0  0.24647  0.37544  0.77180  1.0000
  In  In6       1.0  0.24646  0.87543  0.77180  1.0000
  In  In7       1.0  0.74649  0.37540  0.77175  1.0000
  In  In8       1.0  0.74652  0.87539  0.77178  1.0000
  In  In9       1.0  0.49648  0.12539  0.72921  1.0000
  In  In10      1.0  0.49653  0.62542  0.72919  1.0000
  In  In11      1.0  0.99649  0.12544  0.72915  1.0000
  In  In12      1.0  0.99654  0.62544  0.72914  1.0000
  In  In13      1.0  0.25449  0.12540  0.22915  1.0000
  In  In14      1.0  0.25452  0.62540  0.22917  1.0000
  In  In15      1.0  0.75450  0.12541  0.22912  1.0000
  In  In16      1.0  0.75450  0.62542  0.22913  1.0000
  Ge  Ge1       1.0  0.28027  0.37551  0.08652  1.0000
  Ge  Ge2       1.0  0.28029  0.87547  0.08657  1.0000
  Ge  Ge3       1.0  0.78028  0.37556  0.08649  1.0000
  Ge  Ge4       1.0  0.78025  0.87549  0.08649  1.0000
  Ge  Ge5       1.0  0.47073  0.37554  0.58665  1.0000
  Ge  Ge6       1.0  0.47069  0.87558  0.58659  1.0000
  Ge  Ge7       1.0  0.97079  0.37559  0.58661  1.0000
  Ge  Ge8       1.0  0.97069  0.87560  0.58659  1.0000
  Ge  Ge9       1.0  0.22068  0.12561  0.91451  1.0000
  Ge  Ge10      1.0  0.22068  0.62558  0.91450  1.0000
  Ge  Ge11      1.0  0.72074  0.12553  0.91448  1.0000
  Ge  Ge12      1.0  0.72071  0.62554  0.91449  1.0000
  Ge  Ge13      1.0  0.03039  0.12553  0.41448  1.0000
  Ge  Ge14      1.0  0.03035  0.62551  0.41451  1.0000
  Ge  Ge15      1.0  0.53032  0.12559  0.41453  1.0000
  Ge  Ge16      1.0  0.53037  0.62558  0.41449  1.0000
  O   O1        1.0  0.38687  0.26596  0.66644  1.0000
  O   O2        1.0  0.38696  0.76603  0.66652  1.0000
  O   O3        1.0  0.88693  0.26602  0.66644  1.0000
  O   O4        1.0  0.88691  0.76602  0.66649  1.0000
  O   O5        1.0  0.11432  0.23491  0.33455  1.0000
  O   O6        1.0  0.11426  0.73490  0.33454  1.0000
  O   O7        1.0  0.61425  0.23494  0.33456  1.0000
  O   O8        1.0  0.61424  0.73498  0.33451  1.0000
  O   O9        1.0  0.36410  0.26596  0.16644  1.0000
  O   O10       1.0  0.36418  0.76596  0.16644  1.0000
  O   O11       1.0  0.86414  0.26600  0.16637  1.0000
  O   O12       1.0  0.86408  0.76599  0.16645  1.0000
  O   O13       1.0  0.38679  0.48488  0.66658  1.0000
  O   O14       1.0  0.38675  0.98494  0.66649  1.0000
  O   O15       1.0  0.88682  0.48493  0.66655  1.0000
  O   O16       1.0  0.88673  0.98496  0.66651  1.0000
  O   O17       1.0  0.13691  0.01609  0.83446  1.0000
  O   O18       1.0  0.13687  0.51607  0.83444  1.0000
  O   O19       1.0  0.63697  0.01600  0.83450  1.0000
  O   O20       1.0  0.63683  0.51598  0.83456  1.0000
  O   O21       1.0  0.39367  0.12532  0.90741  1.0000
  O   O22       1.0  0.39365  0.62543  0.90742  1.0000
  O   O23       1.0  0.89375  0.12534  0.90746  1.0000
  O   O24       1.0  0.89366  0.62537  0.90733  1.0000
  O   O25       1.0  0.13676  0.23493  0.83446  1.0000
  O   O26       1.0  0.13672  0.73494  0.83451  1.0000
  O   O27       1.0  0.63682  0.23484  0.83442  1.0000
  O   O28       1.0  0.63679  0.73492  0.83452  1.0000
  O   O29       1.0  0.11415  0.01603  0.33448  1.0000
  O   O30       1.0  0.11417  0.51601  0.33451  1.0000
  O   O31       1.0  0.61406  0.01608  0.33449  1.0000
  O   O32       1.0  0.61417  0.51608  0.33443  1.0000
  O   O33       1.0  0.10730  0.37534  0.09354  1.0000
  O   O34       1.0  0.10731  0.87531  0.09357  1.0000
  O   O35       1.0  0.60732  0.37540  0.09357  1.0000
  O   O36       1.0  0.60728  0.87539  0.09359  1.0000
  O   O37       1.0  0.35732  0.12537  0.40737  1.0000
  O   O38       1.0  0.35741  0.62540  0.40740  1.0000
  O   O39       1.0  0.85738  0.12535  0.40735  1.0000
  O   O40       1.0  0.85740  0.62546  0.40736  1.0000
  O   O41       1.0  0.39428  0.37532  0.44018  1.0000
  O   O42       1.0  0.39410  0.87536  0.44017  1.0000
  O   O43       1.0  0.89424  0.37542  0.44016  1.0000
  O   O44       1.0  0.89421  0.87544  0.44012  1.0000
  O   O45       1.0  0.14375  0.37540  0.59359  1.0000
  O   O46       1.0  0.14370  0.87536  0.59357  1.0000
  O   O47       1.0  0.64373  0.37545  0.59356  1.0000
  O   O48       1.0  0.64372  0.87532  0.59355  1.0000
  O   O49       1.0  0.35679  0.37531  0.94009  1.0000
  O   O50       1.0  0.35677  0.87529  0.94013  1.0000
  O   O51       1.0  0.85680  0.37528  0.94007  1.0000
  O   O52       1.0  0.85689  0.87524  0.94010  1.0000
  O   O53       1.0  0.14409  0.12538  0.06088  1.0000
  O   O54       1.0  0.14412  0.62529  0.06090  1.0000
  O   O55       1.0  0.64409  0.12538  0.06082  1.0000
  O   O56       1.0  0.64410  0.62538  0.06086  1.0000
  O   O57       1.0  0.10692  0.12529  0.56088  1.0000
  O   O58       1.0  0.10695  0.62531  0.56091  1.0000
  O   O59       1.0  0.60687  0.12532  0.56091  1.0000
  O   O60       1.0  0.60696  0.62533  0.56091  1.0000
  O   O61       1.0  0.36418  0.48485  0.16657  1.0000
  O   O62       1.0  0.36420  0.98490  0.16645  1.0000
  O   O63       1.0  0.86425  0.48491  0.16646  1.0000
  O   O64       1.0  0.86423  0.98489  0.16638  1.0000
