data_image0
_chemical_formula_structural       Na80Al16O64
_chemical_formula_sum              "Na80 Al16 O64"
_cell_length_a       11.7182
_cell_length_b       10.0441
_cell_length_c       17.751
_cell_angle_alpha    89.9989
_cell_angle_beta     89.9873
_cell_angle_gamma    90.0068

_space_group_name_H-M_alt    "P 1"
_space_group_IT_number       1

loop_
  _space_group_symop_operation_xyz
  'x, y, z'

loop_
  _atom_site_type_symbol
  _atom_site_label
  _atom_site_symmetry_multiplicity
  _atom_site_fract_x
  _atom_site_fract_y
  _atom_site_fract_z
  _atom_site_occupancy
  Na  Na1       1.0  0.05302  0.32673  0.17351  1.0000
  Na  Na2       1.0  0.55293  0.32684  0.17357  1.0000
  Na  Na3       1.0  0.30300  0.67420  0.32722  1.0000
  Na  Na4       1.0  0.80302  0.67423  0.32721  1.0000
  Na  Na5       1.0  0.19760  0.82704  0.82719  1.0000
  Na  Na6       1.0  0.69759  0.82708  0.82719  1.0000
  Na  Na7       1.0  0.44740  0.17393  0.67321  1.0000
  Na  Na8       1.0  0.94738  0.17396  0.67321  1.0000
  Na  Na9       1.0  0.44734  0.67401  0.82730  1.0000
  Na  Na10      1.0  0.94738  0.67404  0.82729  1.0000
  Na  Na11      1.0  0.19754  0.32694  0.67330  1.0000
  Na  Na12      1.0  0.69760  0.32698  0.67319  1.0000
  Na  Na13      1.0  0.30299  0.17414  0.17343  1.0000
  Na  Na14      1.0  0.80300  0.17417  0.17339  1.0000
  Na  Na15      1.0  0.05265  0.82682  0.32702  1.0000
  Na  Na16      1.0  0.55270  0.82702  0.32704  1.0000
  Na  Na17      1.0  0.05259  0.58424  0.25019  1.0000
  Na  Na18      1.0  0.55248  0.58411  0.25026  1.0000
  Na  Na19      1.0  0.30308  0.41684  0.25037  1.0000
  Na  Na20      1.0  0.80260  0.41721  0.25020  1.0000
  Na  Na21      1.0  0.19803  0.08425  0.75020  1.0000
  Na  Na22      1.0  0.69799  0.08425  0.75019  1.0000
  Na  Na23      1.0  0.44775  0.91628  0.75019  1.0000
  Na  Na24      1.0  0.94771  0.91637  0.75016  1.0000
  Na  Na25      1.0  0.44770  0.41669  0.75024  1.0000
  Na  Na26      1.0  0.94773  0.41673  0.75022  1.0000
  Na  Na27      1.0  0.19796  0.58432  0.75022  1.0000
  Na  Na28      1.0  0.69800  0.58432  0.75021  1.0000
  Na  Na29      1.0  0.30277  0.91691  0.25015  1.0000
  Na  Na30      1.0  0.80273  0.91689  0.25015  1.0000
  Na  Na31      1.0  0.05263  0.08364  0.25023  1.0000
  Na  Na32      1.0  0.55237  0.08425  0.25023  1.0000
  Na  Na33      1.0  0.04397  0.16338  0.49849  1.0000
  Na  Na34      1.0  0.54444  0.16307  0.49874  1.0000
  Na  Na35      1.0  0.29480  0.83888  0.00205  1.0000
  Na  Na36      1.0  0.79481  0.83886  0.00212  1.0000
  Na  Na37      1.0  0.20734  0.66411  0.50189  1.0000
  Na  Na38      1.0  0.70733  0.66402  0.50190  1.0000
  Na  Na39      1.0  0.45896  0.33878  0.99890  1.0000
  Na  Na40      1.0  0.95900  0.33875  0.99884  1.0000
  Na  Na41      1.0  0.45869  0.83820  0.50192  1.0000
  Na  Na42      1.0  0.95877  0.83847  0.50177  1.0000
  Na  Na43      1.0  0.20804  0.16321  0.99856  1.0000
  Na  Na44      1.0  0.70760  0.16417  0.99839  1.0000
  Na  Na45      1.0  0.29121  0.33881  0.49914  1.0000
  Na  Na46      1.0  0.79392  0.33768  0.49837  1.0000
  Na  Na47      1.0  0.04446  0.66359  0.00163  1.0000
  Na  Na48      1.0  0.54446  0.66356  0.00164  1.0000
  Na  Na49      1.0  0.45889  0.30132  0.36376  1.0000
  Na  Na50      1.0  0.95890  0.30174  0.36136  1.0000
  Na  Na51      1.0  0.20621  0.43897  0.06485  1.0000
  Na  Na52      1.0  0.70682  0.43950  0.06480  1.0000
  Na  Na53      1.0  0.29476  0.06061  0.56440  1.0000
  Na  Na54      1.0  0.79471  0.06051  0.56442  1.0000
  Na  Na55      1.0  0.04519  0.94034  0.93601  1.0000
  Na  Na56      1.0  0.54526  0.94032  0.93604  1.0000
  Na  Na57      1.0  0.04451  0.43963  0.56450  1.0000
  Na  Na58      1.0  0.54464  0.43954  0.56460  1.0000
  Na  Na59      1.0  0.29500  0.56025  0.93605  1.0000
  Na  Na60      1.0  0.79490  0.56055  0.93598  1.0000
  Na  Na61      1.0  0.20571  0.93956  0.43576  1.0000
  Na  Na62      1.0  0.70572  0.93951  0.43575  1.0000
  Na  Na63      1.0  0.45616  0.06153  0.06494  1.0000
  Na  Na64      1.0  0.95607  0.06165  0.06499  1.0000
  Na  Na65      1.0  0.45891  0.80170  0.13884  1.0000
  Na  Na66      1.0  0.95889  0.80176  0.13886  1.0000
  Na  Na67      1.0  0.20918  0.19949  0.36146  1.0000
  Na  Na68      1.0  0.70910  0.19935  0.36141  1.0000
  Na  Na69      1.0  0.29155  0.30163  0.86137  1.0000
  Na  Na70      1.0  0.79157  0.30178  0.86128  1.0000
  Na  Na71      1.0  0.04153  0.69866  0.63898  1.0000
  Na  Na72      1.0  0.54156  0.69856  0.63900  1.0000
  Na  Na73      1.0  0.04152  0.19899  0.86142  1.0000
  Na  Na74      1.0  0.54141  0.19903  0.86134  1.0000
  Na  Na75      1.0  0.29166  0.80194  0.63898  1.0000
  Na  Na76      1.0  0.79165  0.80184  0.63895  1.0000
  Na  Na77      1.0  0.20903  0.69883  0.13876  1.0000
  Na  Na78      1.0  0.70905  0.69906  0.13874  1.0000
  Na  Na79      1.0  0.45567  0.56088  0.43591  1.0000
  Na  Na80      1.0  0.95564  0.56079  0.43586  1.0000
  Al  Al1       1.0  0.16113  0.46146  0.37606  1.0000
  Al  Al2       1.0  0.66127  0.46145  0.37617  1.0000
  Al  Al3       1.0  0.41157  0.53971  0.12442  1.0000
  Al  Al4       1.0  0.91164  0.53981  0.12447  1.0000
  Al  Al5       1.0  0.08938  0.96120  0.62457  1.0000
  Al  Al6       1.0  0.58938  0.96113  0.62461  1.0000
  Al  Al7       1.0  0.33963  0.03976  0.87610  1.0000
  Al  Al8       1.0  0.83955  0.03986  0.87614  1.0000
  Al  Al9       1.0  0.33929  0.53984  0.62448  1.0000
  Al  Al10      1.0  0.83925  0.53985  0.62444  1.0000
  Al  Al11      1.0  0.08951  0.46110  0.87597  1.0000
  Al  Al12      1.0  0.58951  0.46121  0.87594  1.0000
  Al  Al13      1.0  0.41122  0.03986  0.37622  1.0000
  Al  Al14      1.0  0.91126  0.03982  0.37612  1.0000
  Al  Al15      1.0  0.16141  0.96109  0.12451  1.0000
  Al  Al16      1.0  0.66141  0.96127  0.12451  1.0000
  O   O1        1.0  0.31168  0.45356  0.38072  1.0000
  O   O2        1.0  0.81189  0.45354  0.38030  1.0000
  O   O3        1.0  0.06222  0.54713  0.12002  1.0000
  O   O4        1.0  0.56223  0.54702  0.12001  1.0000
  O   O5        1.0  0.43881  0.95335  0.62012  1.0000
  O   O6        1.0  0.93882  0.95340  0.62009  1.0000
  O   O7        1.0  0.18905  0.04774  0.88048  1.0000
  O   O8        1.0  0.68897  0.04794  0.88048  1.0000
  O   O9        1.0  0.18869  0.54735  0.61987  1.0000
  O   O10       1.0  0.68866  0.54759  0.62001  1.0000
  O   O11       1.0  0.43894  0.45302  0.88042  1.0000
  O   O12       1.0  0.93895  0.45317  0.88044  1.0000
  O   O13       1.0  0.06190  0.04738  0.38057  1.0000
  O   O14       1.0  0.56185  0.04757  0.38063  1.0000
  O   O15       1.0  0.31202  0.95360  0.12015  1.0000
  O   O16       1.0  0.81205  0.95357  0.12024  1.0000
  O   O17       1.0  0.11731  0.37812  0.29134  1.0000
  O   O18       1.0  0.61691  0.37798  0.29161  1.0000
  O   O19       1.0  0.36745  0.62317  0.20915  1.0000
  O   O20       1.0  0.86748  0.62328  0.20915  1.0000
  O   O21       1.0  0.13333  0.87773  0.70924  1.0000
  O   O22       1.0  0.63335  0.87767  0.70927  1.0000
  O   O23       1.0  0.11856  0.13165  0.12653  1.0000
  O   O24       1.0  0.61855  0.13183  0.12646  1.0000
  O   O25       1.0  0.38314  0.62323  0.70925  1.0000
  O   O26       1.0  0.88325  0.62317  0.70921  1.0000
  O   O27       1.0  0.13348  0.37780  0.79124  1.0000
  O   O28       1.0  0.63348  0.37776  0.79125  1.0000
  O   O29       1.0  0.36716  0.12299  0.29146  1.0000
  O   O30       1.0  0.86736  0.12302  0.29133  1.0000
  O   O31       1.0  0.11731  0.87759  0.20920  1.0000
  O   O32       1.0  0.61721  0.87790  0.20922  1.0000
  O   O33       1.0  0.09832  0.37304  0.45171  1.0000
  O   O34       1.0  0.59910  0.37305  0.45202  1.0000
  O   O35       1.0  0.34909  0.62804  0.04870  1.0000
  O   O36       1.0  0.84909  0.62797  0.04869  1.0000
  O   O37       1.0  0.15219  0.87328  0.54876  1.0000
  O   O38       1.0  0.65214  0.87329  0.54877  1.0000
  O   O39       1.0  0.40239  0.12784  0.95191  1.0000
  O   O40       1.0  0.90228  0.12799  0.95195  1.0000
  O   O41       1.0  0.40211  0.62811  0.54879  1.0000
  O   O42       1.0  0.90216  0.62810  0.54874  1.0000
  O   O43       1.0  0.15228  0.37301  0.95177  1.0000
  O   O44       1.0  0.65242  0.37343  0.95180  1.0000
  O   O45       1.0  0.34884  0.12879  0.45183  1.0000
  O   O46       1.0  0.84861  0.12818  0.45179  1.0000
  O   O47       1.0  0.09887  0.87299  0.04876  1.0000
  O   O48       1.0  0.59891  0.87300  0.04879  1.0000
  O   O49       1.0  0.11819  0.63193  0.37426  1.0000
  O   O50       1.0  0.61825  0.63198  0.37433  1.0000
  O   O51       1.0  0.36856  0.36921  0.12646  1.0000
  O   O52       1.0  0.86869  0.36932  0.12656  1.0000
  O   O53       1.0  0.13248  0.13167  0.62637  1.0000
  O   O54       1.0  0.63248  0.13158  0.62645  1.0000
  O   O55       1.0  0.38269  0.86933  0.87431  1.0000
  O   O56       1.0  0.88263  0.86942  0.87432  1.0000
  O   O57       1.0  0.38222  0.36940  0.62650  1.0000
  O   O58       1.0  0.88235  0.36939  0.62640  1.0000
  O   O59       1.0  0.13262  0.63154  0.87412  1.0000
  O   O60       1.0  0.63250  0.63163  0.87403  1.0000
  O   O61       1.0  0.36823  0.86937  0.37436  1.0000
  O   O62       1.0  0.86825  0.86938  0.37422  1.0000
  O   O63       1.0  0.38354  0.12288  0.79128  1.0000
  O   O64       1.0  0.88356  0.12294  0.79130  1.0000
