data_image0
_chemical_formula_structural       Ca24Zr8Si16O72
_chemical_formula_sum              "Ca24 Zr8 Si16 O72"
_cell_length_a       10.2132
_cell_length_b       14.739
_cell_length_c       10.4335
_cell_angle_alpha    89.017
_cell_angle_beta     90.0008
_cell_angle_gamma    89.9991

_space_group_name_H-M_alt    "P 1"
_space_group_IT_number       1

loop_
  _space_group_symop_operation_xyz
  'x, y, z'

loop_
  _atom_site_type_symbol
  _atom_site_label
  _atom_site_symmetry_multiplicity
  _atom_site_fract_x
  _atom_site_fract_y
  _atom_site_fract_z
  _atom_site_occupancy
  Ca  Ca1       1.0  0.92262  0.18330  0.11382  1.0000
  Ca  Ca2       1.0  0.92257  0.68328  0.11379  1.0000
  Ca  Ca3       1.0  0.42260  0.31729  0.38703  1.0000
  Ca  Ca4       1.0  0.42257  0.81732  0.38714  1.0000
  Ca  Ca5       1.0  0.07844  0.31735  0.88711  1.0000
  Ca  Ca6       1.0  0.07850  0.81732  0.88715  1.0000
  Ca  Ca7       1.0  0.57837  0.18336  0.61383  1.0000
  Ca  Ca8       1.0  0.57852  0.68328  0.61374  1.0000
  Ca  Ca9       1.0  0.32725  0.44111  0.09012  1.0000
  Ca  Ca10      1.0  0.32729  0.94111  0.09011  1.0000
  Ca  Ca11      1.0  0.82731  0.05952  0.41086  1.0000
  Ca  Ca12      1.0  0.82730  0.55948  0.41080  1.0000
  Ca  Ca13      1.0  0.67377  0.05950  0.91075  1.0000
  Ca  Ca14      1.0  0.67369  0.55954  0.91077  1.0000
  Ca  Ca15      1.0  0.17366  0.44112  0.59008  1.0000
  Ca  Ca16      1.0  0.17363  0.94111  0.59005  1.0000
  Ca  Ca17      1.0  0.30554  0.18689  0.10087  1.0000
  Ca  Ca18      1.0  0.30561  0.68689  0.10090  1.0000
  Ca  Ca19      1.0  0.80548  0.31374  0.39999  1.0000
  Ca  Ca20      1.0  0.80556  0.81373  0.40004  1.0000
  Ca  Ca21      1.0  0.69551  0.31375  0.89998  1.0000
  Ca  Ca22      1.0  0.69551  0.81375  0.90002  1.0000
  Ca  Ca23      1.0  0.19543  0.18690  0.60087  1.0000
  Ca  Ca24      1.0  0.19545  0.68687  0.60089  1.0000
  Zr  Zr1       1.0  0.56542  0.43914  0.61532  1.0000
  Zr  Zr2       1.0  0.56543  0.93916  0.61535  1.0000
  Zr  Zr3       1.0  0.06549  0.06149  0.88559  1.0000
  Zr  Zr4       1.0  0.06548  0.56149  0.88557  1.0000
  Zr  Zr5       1.0  0.43551  0.06148  0.38557  1.0000
  Zr  Zr6       1.0  0.43551  0.56147  0.38556  1.0000
  Zr  Zr7       1.0  0.93549  0.43916  0.11531  1.0000
  Zr  Zr8       1.0  0.93548  0.93915  0.11534  1.0000
  Si  Si1       1.0  0.13463  0.29944  0.31029  1.0000
  Si  Si2       1.0  0.13461  0.79941  0.31031  1.0000
  Si  Si3       1.0  0.63464  0.20121  0.19054  1.0000
  Si  Si4       1.0  0.63466  0.70122  0.19063  1.0000
  Si  Si5       1.0  0.86637  0.20123  0.69057  1.0000
  Si  Si6       1.0  0.86636  0.70119  0.69060  1.0000
  Si  Si7       1.0  0.36634  0.29941  0.81028  1.0000
  Si  Si8       1.0  0.36639  0.79943  0.81035  1.0000
  Si  Si9       1.0  0.12395  0.08343  0.31764  1.0000
  Si  Si10      1.0  0.12395  0.58343  0.31767  1.0000
  Si  Si11      1.0  0.62397  0.41723  0.18318  1.0000
  Si  Si12      1.0  0.62400  0.91722  0.18327  1.0000
  Si  Si13      1.0  0.87703  0.41723  0.68319  1.0000
  Si  Si14      1.0  0.87701  0.91721  0.68324  1.0000
  Si  Si15      1.0  0.37699  0.08340  0.81768  1.0000
  Si  Si16      1.0  0.37703  0.58345  0.81767  1.0000
  O   O1        1.0  0.39112  0.17173  0.48584  1.0000
  O   O2        1.0  0.39116  0.67173  0.48585  1.0000
  O   O3        1.0  0.89121  0.32890  0.01505  1.0000
  O   O4        1.0  0.89121  0.82886  0.01510  1.0000
  O   O5        1.0  0.60982  0.32894  0.51497  1.0000
  O   O6        1.0  0.60986  0.82890  0.51511  1.0000
  O   O7        1.0  0.10985  0.17173  0.98584  1.0000
  O   O8        1.0  0.10985  0.67173  0.98586  1.0000
  O   O9        1.0  0.11079  0.45240  0.01158  1.0000
  O   O10       1.0  0.11079  0.95239  0.01160  1.0000
  O   O11       1.0  0.61076  0.04824  0.48933  1.0000
  O   O12       1.0  0.61080  0.54821  0.48933  1.0000
  O   O13       1.0  0.89022  0.04826  0.98936  1.0000
  O   O14       1.0  0.89021  0.54826  0.98931  1.0000
  O   O15       1.0  0.39018  0.45239  0.51153  1.0000
  O   O16       1.0  0.39017  0.95237  0.51155  1.0000
  O   O17       1.0  0.16592  0.31113  0.46035  1.0000
  O   O18       1.0  0.16583  0.81112  0.46039  1.0000
  O   O19       1.0  0.66594  0.18950  0.04050  1.0000
  O   O20       1.0  0.66597  0.68953  0.04056  1.0000
  O   O21       1.0  0.83509  0.18953  0.54051  1.0000
  O   O22       1.0  0.83509  0.68948  0.54055  1.0000
  O   O23       1.0  0.33512  0.31113  0.96036  1.0000
  O   O24       1.0  0.33506  0.81112  0.96041  1.0000
  O   O25       1.0  0.99943  0.34645  0.26196  1.0000
  O   O26       1.0  0.99944  0.84647  0.26196  1.0000
  O   O27       1.0  0.49946  0.15420  0.23895  1.0000
  O   O28       1.0  0.49946  0.65420  0.23895  1.0000
  O   O29       1.0  0.88056  0.43025  0.53042  1.0000
  O   O30       1.0  0.88050  0.93022  0.53046  1.0000
  O   O31       1.0  0.00156  0.15421  0.73893  1.0000
  O   O32       1.0  0.00156  0.65423  0.73895  1.0000
  O   O33       1.0  0.23603  0.32255  0.72649  1.0000
  O   O34       1.0  0.23607  0.82250  0.72649  1.0000
  O   O35       1.0  0.73606  0.17815  0.77439  1.0000
  O   O36       1.0  0.73606  0.67807  0.77440  1.0000
  O   O37       1.0  0.76495  0.17815  0.27437  1.0000
  O   O38       1.0  0.76496  0.67811  0.27446  1.0000
  O   O39       1.0  0.26494  0.32251  0.22646  1.0000
  O   O40       1.0  0.26496  0.82246  0.22653  1.0000
  O   O41       1.0  0.76449  0.44751  0.24362  1.0000
  O   O42       1.0  0.76450  0.94751  0.24374  1.0000
  O   O43       1.0  0.26449  0.05313  0.25729  1.0000
  O   O44       1.0  0.26449  0.55316  0.25730  1.0000
  O   O45       1.0  0.23647  0.05308  0.75727  1.0000
  O   O46       1.0  0.23650  0.55324  0.75720  1.0000
  O   O47       1.0  0.73648  0.44752  0.74357  1.0000
  O   O48       1.0  0.73649  0.94757  0.74357  1.0000
  O   O49       1.0  0.39405  0.19156  0.77548  1.0000
  O   O50       1.0  0.39438  0.69160  0.77562  1.0000
  O   O51       1.0  0.89419  0.30907  0.72535  1.0000
  O   O52       1.0  0.89408  0.80905  0.72545  1.0000
  O   O53       1.0  0.60671  0.30906  0.22529  1.0000
  O   O54       1.0  0.60681  0.80906  0.22538  1.0000
  O   O55       1.0  0.10680  0.19158  0.27549  1.0000
  O   O56       1.0  0.10670  0.69159  0.27555  1.0000
  O   O57       1.0  0.00469  0.45825  0.75384  1.0000
  O   O58       1.0  0.00469  0.95821  0.75388  1.0000
  O   O59       1.0  0.50469  0.04242  0.74705  1.0000
  O   O60       1.0  0.50467  0.54235  0.74710  1.0000
  O   O61       1.0  0.99628  0.04242  0.24705  1.0000
  O   O62       1.0  0.99629  0.54241  0.24701  1.0000
  O   O63       1.0  0.49630  0.45825  0.25380  1.0000
  O   O64       1.0  0.49626  0.95822  0.25379  1.0000
  O   O65       1.0  0.62062  0.43028  0.03040  1.0000
  O   O66       1.0  0.62069  0.93026  0.03047  1.0000
  O   O67       1.0  0.12045  0.07040  0.47045  1.0000
  O   O68       1.0  0.12044  0.57037  0.47044  1.0000
  O   O69       1.0  0.38043  0.07038  0.97044  1.0000
  O   O70       1.0  0.38044  0.57036  0.97046  1.0000
  O   O71       1.0  0.50156  0.34632  0.76187  1.0000
  O   O72       1.0  0.50155  0.84652  0.76207  1.0000
