data_image0
_chemical_formula_structural       Ba18Ta6Nb24O90
_chemical_formula_sum              "Ba18 Ta6 Nb24 O90"
_cell_length_a       12.7391
_cell_length_b       12.7388
_cell_length_c       12.0441
_cell_angle_alpha    90.0006
_cell_angle_beta     90.0002
_cell_angle_gamma    90.0002

_space_group_name_H-M_alt    "P 1"
_space_group_IT_number       1

loop_
  _space_group_symop_operation_xyz
  'x, y, z'

loop_
  _atom_site_type_symbol
  _atom_site_label
  _atom_site_symmetry_multiplicity
  _atom_site_fract_x
  _atom_site_fract_y
  _atom_site_fract_z
  _atom_site_occupancy
  Ba  Ba1       1.0  0.50039  0.50041  0.00042  1.0000
  Ba  Ba2       1.0  0.50038  0.50041  0.33376  1.0000
  Ba  Ba3       1.0  0.50037  0.50042  0.66708  1.0000
  Ba  Ba4       1.0  0.00031  0.00041  0.00039  1.0000
  Ba  Ba5       1.0  0.00039  0.00040  0.33375  1.0000
  Ba  Ba6       1.0  0.00036  0.00038  0.66703  1.0000
  Ba  Ba7       1.0  0.66980  0.16975  0.00036  1.0000
  Ba  Ba8       1.0  0.66967  0.16990  0.33374  1.0000
  Ba  Ba9       1.0  0.66986  0.16971  0.66709  1.0000
  Ba  Ba10      1.0  0.33101  0.83111  0.00045  1.0000
  Ba  Ba11      1.0  0.33083  0.83102  0.33383  1.0000
  Ba  Ba12      1.0  0.33123  0.83101  0.66715  1.0000
  Ba  Ba13      1.0  0.16964  0.33091  0.00036  1.0000
  Ba  Ba14      1.0  0.16991  0.33106  0.33368  1.0000
  Ba  Ba15      1.0  0.16973  0.33106  0.66706  1.0000
  Ba  Ba16      1.0  0.83103  0.66986  0.00039  1.0000
  Ba  Ba17      1.0  0.83110  0.66983  0.33373  1.0000
  Ba  Ba18      1.0  0.83091  0.66951  0.66713  1.0000
  Ta  Ta1       1.0  0.50039  0.00045  0.16719  1.0000
  Ta  Ta2       1.0  0.50042  0.00047  0.50045  1.0000
  Ta  Ta3       1.0  0.50040  0.00047  0.83383  1.0000
  Ta  Ta4       1.0  0.00037  0.50039  0.16699  1.0000
  Ta  Ta5       1.0  0.00042  0.50032  0.50030  1.0000
  Ta  Ta6       1.0  0.00039  0.50039  0.83367  1.0000
  Nb  Nb1       1.0  0.57744  0.71380  0.16713  1.0000
  Nb  Nb2       1.0  0.57748  0.71382  0.50044  1.0000
  Nb  Nb3       1.0  0.57747  0.71384  0.83377  1.0000
  Nb  Nb4       1.0  0.42326  0.28699  0.16703  1.0000
  Nb  Nb5       1.0  0.42327  0.28697  0.50035  1.0000
  Nb  Nb6       1.0  0.42323  0.28700  0.83366  1.0000
  Nb  Nb7       1.0  0.07743  0.78697  0.16710  1.0000
  Nb  Nb8       1.0  0.07748  0.78696  0.50045  1.0000
  Nb  Nb9       1.0  0.07740  0.78698  0.83376  1.0000
  Nb  Nb10      1.0  0.92320  0.21381  0.16711  1.0000
  Nb  Nb11      1.0  0.92327  0.21376  0.50040  1.0000
  Nb  Nb12      1.0  0.92326  0.21380  0.83371  1.0000
  Nb  Nb13      1.0  0.28695  0.57747  0.16711  1.0000
  Nb  Nb14      1.0  0.28698  0.57750  0.50042  1.0000
  Nb  Nb15      1.0  0.28694  0.57749  0.83376  1.0000
  Nb  Nb16      1.0  0.71375  0.42333  0.16707  1.0000
  Nb  Nb17      1.0  0.71381  0.42329  0.50039  1.0000
  Nb  Nb18      1.0  0.71375  0.42328  0.83371  1.0000
  Nb  Nb19      1.0  0.21374  0.07747  0.16703  1.0000
  Nb  Nb20      1.0  0.21380  0.07744  0.50035  1.0000
  Nb  Nb21      1.0  0.21377  0.07742  0.83368  1.0000
  Nb  Nb22      1.0  0.78694  0.92325  0.16709  1.0000
  Nb  Nb23      1.0  0.78700  0.92321  0.50038  1.0000
  Nb  Nb24      1.0  0.78697  0.92330  0.83368  1.0000
  O   O1        1.0  0.50043  0.00050  0.00040  1.0000
  O   O2        1.0  0.50033  0.00056  0.33371  1.0000
  O   O3        1.0  0.50033  0.00040  0.66707  1.0000
  O   O4        1.0  0.00055  0.50049  0.00042  1.0000
  O   O5        1.0  0.00031  0.50035  0.33372  1.0000
  O   O6        1.0  0.00051  0.50029  0.66713  1.0000
  O   O7        1.0  0.78103  0.28111  0.16707  1.0000
  O   O8        1.0  0.78111  0.28107  0.50042  1.0000
  O   O9        1.0  0.78111  0.28116  0.83364  1.0000
  O   O10       1.0  0.21961  0.71966  0.16686  1.0000
  O   O11       1.0  0.21965  0.71968  0.50056  1.0000
  O   O12       1.0  0.21963  0.71966  0.83379  1.0000
  O   O13       1.0  0.28114  0.21957  0.16700  1.0000
  O   O14       1.0  0.28107  0.21963  0.50038  1.0000
  O   O15       1.0  0.28112  0.21961  0.83370  1.0000
  O   O16       1.0  0.71971  0.78108  0.16700  1.0000
  O   O17       1.0  0.71971  0.78106  0.50050  1.0000
  O   O18       1.0  0.71967  0.78110  0.83371  1.0000
  O   O19       1.0  0.57724  0.70943  0.00045  1.0000
  O   O20       1.0  0.57739  0.70941  0.33379  1.0000
  O   O21       1.0  0.57718  0.70951  0.66708  1.0000
  O   O22       1.0  0.42343  0.29147  0.00038  1.0000
  O   O23       1.0  0.42350  0.29126  0.33375  1.0000
  O   O24       1.0  0.42336  0.29147  0.66698  1.0000
  O   O25       1.0  0.07705  0.79132  0.00041  1.0000
  O   O26       1.0  0.07736  0.79123  0.33374  1.0000
  O   O27       1.0  0.07724  0.79143  0.66708  1.0000
  O   O28       1.0  0.92336  0.20928  0.00037  1.0000
  O   O29       1.0  0.92340  0.20951  0.33376  1.0000
  O   O30       1.0  0.92344  0.20936  0.66704  1.0000
  O   O31       1.0  0.29148  0.57720  0.00043  1.0000
  O   O32       1.0  0.29131  0.57745  0.33377  1.0000
  O   O33       1.0  0.29135  0.57721  0.66707  1.0000
  O   O34       1.0  0.70926  0.42338  0.00041  1.0000
  O   O35       1.0  0.70948  0.42356  0.33373  1.0000
  O   O36       1.0  0.70946  0.42367  0.66706  1.0000
  O   O37       1.0  0.20931  0.07727  0.00037  1.0000
  O   O38       1.0  0.20948  0.07714  0.33371  1.0000
  O   O39       1.0  0.20942  0.07712  0.66703  1.0000
  O   O40       1.0  0.79136  0.92354  0.00038  1.0000
  O   O41       1.0  0.79133  0.92338  0.33376  1.0000
  O   O42       1.0  0.79142  0.92347  0.66703  1.0000
  O   O43       1.0  0.84550  0.50766  0.16694  1.0000
  O   O44       1.0  0.84553  0.50768  0.50041  1.0000
  O   O45       1.0  0.84549  0.50766  0.83390  1.0000
  O   O46       1.0  0.15531  0.49301  0.16714  1.0000
  O   O47       1.0  0.15532  0.49299  0.50035  1.0000
  O   O48       1.0  0.15531  0.49296  0.83381  1.0000
  O   O49       1.0  0.34551  0.99312  0.16694  1.0000
  O   O50       1.0  0.34553  0.99303  0.50035  1.0000
  O   O51       1.0  0.34548  0.99300  0.83383  1.0000
  O   O52       1.0  0.65527  0.00772  0.16714  1.0000
  O   O53       1.0  0.65532  0.00772  0.50038  1.0000
  O   O54       1.0  0.65529  0.00777  0.83362  1.0000
  O   O55       1.0  0.49307  0.84553  0.16709  1.0000
  O   O56       1.0  0.49314  0.84561  0.50027  1.0000
  O   O57       1.0  0.49311  0.84560  0.83388  1.0000
  O   O58       1.0  0.50777  0.15536  0.16702  1.0000
  O   O59       1.0  0.50785  0.15536  0.50048  1.0000
  O   O60       1.0  0.50777  0.15536  0.83367  1.0000
  O   O61       1.0  0.00762  0.34548  0.16700  1.0000
  O   O62       1.0  0.00776  0.34546  0.50042  1.0000
  O   O63       1.0  0.00769  0.34548  0.83383  1.0000
  O   O64       1.0  0.99299  0.65525  0.16714  1.0000
  O   O65       1.0  0.99314  0.65521  0.50050  1.0000
  O   O66       1.0  0.99295  0.65529  0.83363  1.0000
  O   O67       1.0  0.64058  0.56991  0.16708  1.0000
  O   O68       1.0  0.64057  0.56991  0.50049  1.0000
  O   O69       1.0  0.64061  0.56995  0.83372  1.0000
  O   O70       1.0  0.36014  0.43085  0.16722  1.0000
  O   O71       1.0  0.36023  0.43089  0.50025  1.0000
  O   O72       1.0  0.36020  0.43089  0.83368  1.0000
  O   O73       1.0  0.14053  0.93087  0.16706  1.0000
  O   O74       1.0  0.14058  0.93084  0.50037  1.0000
  O   O75       1.0  0.14054  0.93086  0.83382  1.0000
  O   O76       1.0  0.86015  0.06989  0.16720  1.0000
  O   O77       1.0  0.86028  0.06984  0.50029  1.0000
  O   O78       1.0  0.86015  0.06992  0.83366  1.0000
  O   O79       1.0  0.43087  0.64058  0.16718  1.0000
  O   O80       1.0  0.43085  0.64068  0.50043  1.0000
  O   O81       1.0  0.43083  0.64065  0.83371  1.0000
  O   O82       1.0  0.56985  0.36025  0.16716  1.0000
  O   O83       1.0  0.56996  0.36018  0.50037  1.0000
  O   O84       1.0  0.56986  0.36027  0.83359  1.0000
  O   O85       1.0  0.06985  0.14059  0.16715  1.0000
  O   O86       1.0  0.06992  0.14054  0.50031  1.0000
  O   O87       1.0  0.06989  0.14056  0.83367  1.0000
  O   O88       1.0  0.93084  0.86020  0.16714  1.0000
  O   O89       1.0  0.93089  0.86014  0.50030  1.0000
  O   O90       1.0  0.93082  0.86023  0.83373  1.0000
