data_image0
_chemical_formula_structural       Ba18Hf6Ta24O90
_chemical_formula_sum              "Ba18 Hf6 Ta24 O90"
_cell_length_a       12.7409
_cell_length_b       12.7281
_cell_length_c       11.9906
_cell_angle_alpha    89.9997
_cell_angle_beta     90.0109
_cell_angle_gamma    89.9996

_space_group_name_H-M_alt    "P 1"
_space_group_IT_number       1

loop_
  _space_group_symop_operation_xyz
  'x, y, z'

loop_
  _atom_site_type_symbol
  _atom_site_label
  _atom_site_symmetry_multiplicity
  _atom_site_fract_x
  _atom_site_fract_y
  _atom_site_fract_z
  _atom_site_occupancy
  Ba  Ba1       1.0  0.83514  0.31719  0.20801  1.0000
  Ba  Ba2       1.0  0.83517  0.31716  0.54135  1.0000
  Ba  Ba3       1.0  0.83517  0.31717  0.87469  1.0000
  Ba  Ba4       1.0  0.15980  0.68071  0.20912  1.0000
  Ba  Ba5       1.0  0.15977  0.68074  0.54242  1.0000
  Ba  Ba6       1.0  0.15975  0.68068  0.87578  1.0000
  Ba  Ba7       1.0  0.65970  0.81996  0.20912  1.0000
  Ba  Ba8       1.0  0.65977  0.82001  0.54244  1.0000
  Ba  Ba9       1.0  0.65977  0.82001  0.87577  1.0000
  Ba  Ba10      1.0  0.33521  0.18351  0.20802  1.0000
  Ba  Ba11      1.0  0.33515  0.18347  0.54138  1.0000
  Ba  Ba12      1.0  0.33513  0.18354  0.87472  1.0000
  Ba  Ba13      1.0  0.49700  0.49983  0.20691  1.0000
  Ba  Ba14      1.0  0.49702  0.49985  0.54024  1.0000
  Ba  Ba15      1.0  0.49699  0.49982  0.87359  1.0000
  Ba  Ba16      1.0  0.99700  0.00089  0.20692  1.0000
  Ba  Ba17      1.0  0.99701  0.00089  0.54027  1.0000
  Ba  Ba18      1.0  0.99702  0.00088  0.87359  1.0000
  Hf  Hf1       1.0  0.28240  0.42435  0.03995  1.0000
  Hf  Hf2       1.0  0.28242  0.42434  0.37326  1.0000
  Hf  Hf3       1.0  0.28240  0.42434  0.70659  1.0000
  Hf  Hf4       1.0  0.78238  0.07636  0.03992  1.0000
  Hf  Hf5       1.0  0.78240  0.07636  0.37325  1.0000
  Hf  Hf6       1.0  0.78240  0.07639  0.70659  1.0000
  Ta  Ta1       1.0  0.71407  0.57352  0.04091  1.0000
  Ta  Ta2       1.0  0.71407  0.57350  0.37427  1.0000
  Ta  Ta3       1.0  0.71405  0.57352  0.70758  1.0000
  Ta  Ta4       1.0  0.21404  0.92721  0.04091  1.0000
  Ta  Ta5       1.0  0.21405  0.92720  0.37425  1.0000
  Ta  Ta6       1.0  0.21404  0.92721  0.70759  1.0000
  Ta  Ta7       1.0  0.42218  0.71325  0.04141  1.0000
  Ta  Ta8       1.0  0.42220  0.71323  0.37476  1.0000
  Ta  Ta9       1.0  0.42220  0.71324  0.70808  1.0000
  Ta  Ta10      1.0  0.57648  0.28810  0.04029  1.0000
  Ta  Ta11      1.0  0.57650  0.28810  0.37365  1.0000
  Ta  Ta12      1.0  0.57647  0.28810  0.70697  1.0000
  Ta  Ta13      1.0  0.92219  0.78748  0.04143  1.0000
  Ta  Ta14      1.0  0.92222  0.78749  0.37474  1.0000
  Ta  Ta15      1.0  0.92220  0.78748  0.70807  1.0000
  Ta  Ta16      1.0  0.07648  0.21263  0.04029  1.0000
  Ta  Ta17      1.0  0.07650  0.21261  0.37362  1.0000
  Ta  Ta18      1.0  0.07649  0.21261  0.70696  1.0000
  Ta  Ta19      1.0  0.00093  0.50055  0.04784  1.0000
  Ta  Ta20      1.0  0.00092  0.50051  0.38118  1.0000
  Ta  Ta21      1.0  0.00092  0.50054  0.71451  1.0000
  Ta  Ta22      1.0  0.50093  0.00020  0.04782  1.0000
  Ta  Ta23      1.0  0.50093  0.00019  0.38119  1.0000
  Ta  Ta24      1.0  0.50091  0.00020  0.71454  1.0000
  O   O1        1.0  0.49982  0.15598  0.03927  1.0000
  O   O2        1.0  0.49980  0.15600  0.37259  1.0000
  O   O3        1.0  0.49983  0.15599  0.70589  1.0000
  O   O4        1.0  0.50099  0.84654  0.03926  1.0000
  O   O5        1.0  0.50098  0.84652  0.37263  1.0000
  O   O6        1.0  0.50100  0.84653  0.70599  1.0000
  O   O7        1.0  0.00105  0.65422  0.03931  1.0000
  O   O8        1.0  0.00104  0.65421  0.37259  1.0000
  O   O9        1.0  0.00104  0.65423  0.70598  1.0000
  O   O10       1.0  0.99984  0.34476  0.03921  1.0000
  O   O11       1.0  0.99986  0.34476  0.37259  1.0000
  O   O12       1.0  0.99984  0.34475  0.70593  1.0000
  O   O13       1.0  0.15222  0.51527  0.03963  1.0000
  O   O14       1.0  0.15222  0.51526  0.37296  1.0000
  O   O15       1.0  0.15221  0.51526  0.70626  1.0000
  O   O16       1.0  0.84309  0.49347  0.03921  1.0000
  O   O17       1.0  0.84311  0.49349  0.37254  1.0000
  O   O18       1.0  0.84308  0.49349  0.70585  1.0000
  O   O19       1.0  0.65220  0.98542  0.03959  1.0000
  O   O20       1.0  0.65223  0.98544  0.37297  1.0000
  O   O21       1.0  0.65220  0.98545  0.70633  1.0000
  O   O22       1.0  0.34310  0.00724  0.03922  1.0000
  O   O23       1.0  0.34309  0.00725  0.37252  1.0000
  O   O24       1.0  0.34309  0.00726  0.70590  1.0000
  O   O25       1.0  0.99685  0.49788  0.20716  1.0000
  O   O26       1.0  0.99689  0.49795  0.54049  1.0000
  O   O27       1.0  0.99687  0.49794  0.87380  1.0000
  O   O28       1.0  0.49687  0.00281  0.20716  1.0000
  O   O29       1.0  0.49687  0.00280  0.54052  1.0000
  O   O30       1.0  0.49688  0.00286  0.87382  1.0000
  O   O31       1.0  0.29906  0.41559  0.20659  1.0000
  O   O32       1.0  0.29904  0.41559  0.53991  1.0000
  O   O33       1.0  0.29902  0.41554  0.87324  1.0000
  O   O34       1.0  0.70694  0.58183  0.20642  1.0000
  O   O35       1.0  0.70694  0.58186  0.53974  1.0000
  O   O36       1.0  0.70696  0.58182  0.87308  1.0000
  O   O37       1.0  0.20697  0.91890  0.20640  1.0000
  O   O38       1.0  0.20696  0.91890  0.53975  1.0000
  O   O39       1.0  0.20695  0.91893  0.87308  1.0000
  O   O40       1.0  0.79902  0.08512  0.20656  1.0000
  O   O41       1.0  0.79903  0.08513  0.53991  1.0000
  O   O42       1.0  0.79907  0.08517  0.87324  1.0000
  O   O43       1.0  0.42695  0.71089  0.20647  1.0000
  O   O44       1.0  0.42693  0.71091  0.53983  1.0000
  O   O45       1.0  0.42693  0.71089  0.87316  1.0000
  O   O46       1.0  0.58138  0.29601  0.20651  1.0000
  O   O47       1.0  0.58138  0.29600  0.53983  1.0000
  O   O48       1.0  0.58133  0.29599  0.87317  1.0000
  O   O49       1.0  0.92697  0.78985  0.20648  1.0000
  O   O50       1.0  0.92698  0.78979  0.53982  1.0000
  O   O51       1.0  0.92699  0.78984  0.87316  1.0000
  O   O52       1.0  0.08138  0.20473  0.20650  1.0000
  O   O53       1.0  0.08140  0.20471  0.53984  1.0000
  O   O54       1.0  0.08139  0.20471  0.87317  1.0000
  O   O55       1.0  0.43788  0.35691  0.03989  1.0000
  O   O56       1.0  0.43792  0.35695  0.37320  1.0000
  O   O57       1.0  0.43790  0.35692  0.70652  1.0000
  O   O58       1.0  0.57115  0.64736  0.03960  1.0000
  O   O59       1.0  0.57114  0.64735  0.37293  1.0000
  O   O60       1.0  0.57115  0.64735  0.70628  1.0000
  O   O61       1.0  0.07114  0.85338  0.03961  1.0000
  O   O62       1.0  0.07116  0.85337  0.37295  1.0000
  O   O63       1.0  0.07114  0.85340  0.70627  1.0000
  O   O64       1.0  0.93790  0.14383  0.03989  1.0000
  O   O65       1.0  0.93789  0.14383  0.37320  1.0000
  O   O66       1.0  0.93790  0.14381  0.70652  1.0000
  O   O67       1.0  0.36238  0.57297  0.03964  1.0000
  O   O68       1.0  0.36238  0.57298  0.37296  1.0000
  O   O69       1.0  0.36237  0.57298  0.70631  1.0000
  O   O70       1.0  0.63972  0.43726  0.03977  1.0000
  O   O71       1.0  0.63976  0.43727  0.37313  1.0000
  O   O72       1.0  0.63972  0.43728  0.70644  1.0000
  O   O73       1.0  0.86238  0.92774  0.03960  1.0000
  O   O74       1.0  0.86241  0.92775  0.37297  1.0000
  O   O75       1.0  0.86238  0.92775  0.70628  1.0000
  O   O76       1.0  0.13972  0.06346  0.03980  1.0000
  O   O77       1.0  0.13971  0.06344  0.37314  1.0000
  O   O78       1.0  0.13973  0.06345  0.70643  1.0000
  O   O79       1.0  0.71887  0.22648  0.04011  1.0000
  O   O80       1.0  0.71889  0.22648  0.37347  1.0000
  O   O81       1.0  0.71887  0.22651  0.70682  1.0000
  O   O82       1.0  0.28404  0.78396  0.03996  1.0000
  O   O83       1.0  0.28407  0.78398  0.37327  1.0000
  O   O84       1.0  0.28406  0.78398  0.70666  1.0000
  O   O85       1.0  0.78409  0.71674  0.03997  1.0000
  O   O86       1.0  0.78407  0.71676  0.37329  1.0000
  O   O87       1.0  0.78406  0.71675  0.70665  1.0000
  O   O88       1.0  0.21891  0.27422  0.04017  1.0000
  O   O89       1.0  0.21891  0.27420  0.37345  1.0000
  O   O90       1.0  0.21890  0.27423  0.70676  1.0000
