data_image0
_chemical_formula_structural       Rb48Al16O48
_chemical_formula_sum              "Rb48 Al16 O48"
_cell_length_a       13.5331
_cell_length_b       12.2962
_cell_length_c       13.5725
_cell_angle_alpha    102.61
_cell_angle_beta     97.5939
_cell_angle_gamma    85.2128

_space_group_name_H-M_alt    "P 1"
_space_group_IT_number       1

loop_
  _space_group_symop_operation_xyz
  'x, y, z'

loop_
  _atom_site_type_symbol
  _atom_site_label
  _atom_site_symmetry_multiplicity
  _atom_site_fract_x
  _atom_site_fract_y
  _atom_site_fract_z
  _atom_site_occupancy
  Rb  Rb1       1.0  0.09267  0.18547  0.32677  1.0000
  Rb  Rb2       1.0  0.09295  0.18555  0.82687  1.0000
  Rb  Rb3       1.0  0.59265  0.18556  0.32673  1.0000
  Rb  Rb4       1.0  0.59303  0.18537  0.82679  1.0000
  Rb  Rb5       1.0  0.34297  0.68528  0.32685  1.0000
  Rb  Rb6       1.0  0.34259  0.68552  0.82674  1.0000
  Rb  Rb7       1.0  0.84270  0.68547  0.32684  1.0000
  Rb  Rb8       1.0  0.84296  0.68530  0.82665  1.0000
  Rb  Rb9       1.0  0.15783  0.31561  0.17390  1.0000
  Rb  Rb10      1.0  0.15781  0.31572  0.67383  1.0000
  Rb  Rb11      1.0  0.65784  0.31564  0.17389  1.0000
  Rb  Rb12      1.0  0.65790  0.31571  0.67381  1.0000
  Rb  Rb13      1.0  0.40805  0.81555  0.17400  1.0000
  Rb  Rb14      1.0  0.40777  0.81574  0.67399  1.0000
  Rb  Rb15      1.0  0.90796  0.81571  0.17391  1.0000
  Rb  Rb16      1.0  0.90785  0.81561  0.67389  1.0000
  Rb  Rb17      1.0  0.89900  0.40137  0.25047  1.0000
  Rb  Rb18      1.0  0.89913  0.40142  0.75047  1.0000
  Rb  Rb19      1.0  0.39889  0.40127  0.25021  1.0000
  Rb  Rb20      1.0  0.39897  0.40143  0.75038  1.0000
  Rb  Rb21      1.0  0.14901  0.90140  0.25057  1.0000
  Rb  Rb22      1.0  0.14891  0.90154  0.75033  1.0000
  Rb  Rb23      1.0  0.64888  0.90161  0.25046  1.0000
  Rb  Rb24      1.0  0.64887  0.90142  0.75036  1.0000
  Rb  Rb25      1.0  0.35155  0.09930  0.25026  1.0000
  Rb  Rb26      1.0  0.35175  0.09968  0.75043  1.0000
  Rb  Rb27      1.0  0.85162  0.09953  0.25036  1.0000
  Rb  Rb28      1.0  0.85191  0.09958  0.75038  1.0000
  Rb  Rb29      1.0  0.60176  0.59965  0.25053  1.0000
  Rb  Rb30      1.0  0.60167  0.59961  0.75041  1.0000
  Rb  Rb31      1.0  0.10170  0.59964  0.25038  1.0000
  Rb  Rb32      1.0  0.10172  0.59968  0.75021  1.0000
  Rb  Rb33      1.0  0.95145  0.36646  0.00042  1.0000
  Rb  Rb34      1.0  0.95147  0.36643  0.50033  1.0000
  Rb  Rb35      1.0  0.45158  0.36655  0.00036  1.0000
  Rb  Rb36      1.0  0.45149  0.36661  0.50032  1.0000
  Rb  Rb37      1.0  0.20146  0.86619  0.00045  1.0000
  Rb  Rb38      1.0  0.20173  0.86644  0.50035  1.0000
  Rb  Rb39      1.0  0.70142  0.86620  0.00034  1.0000
  Rb  Rb40      1.0  0.70155  0.86640  0.50048  1.0000
  Rb  Rb41      1.0  0.29924  0.13461  0.00034  1.0000
  Rb  Rb42      1.0  0.29910  0.13459  0.50037  1.0000
  Rb  Rb43      1.0  0.79919  0.13456  0.00033  1.0000
  Rb  Rb44      1.0  0.79913  0.13451  0.50039  1.0000
  Rb  Rb45      1.0  0.54915  0.63470  0.00042  1.0000
  Rb  Rb46      1.0  0.54928  0.63482  0.50056  1.0000
  Rb  Rb47      1.0  0.04912  0.63463  0.00025  1.0000
  Rb  Rb48      1.0  0.04918  0.63476  0.50028  1.0000
  Al  Al1       1.0  0.21129  0.42246  0.42725  1.0000
  Al  Al2       1.0  0.21137  0.42248  0.92726  1.0000
  Al  Al3       1.0  0.71130  0.42244  0.42716  1.0000
  Al  Al4       1.0  0.71139  0.42244  0.92723  1.0000
  Al  Al5       1.0  0.46138  0.92239  0.42718  1.0000
  Al  Al6       1.0  0.46127  0.92235  0.92708  1.0000
  Al  Al7       1.0  0.96137  0.92243  0.42726  1.0000
  Al  Al8       1.0  0.96128  0.92232  0.92710  1.0000
  Al  Al9       1.0  0.03938  0.07852  0.07352  1.0000
  Al  Al10      1.0  0.03939  0.07873  0.57358  1.0000
  Al  Al11      1.0  0.53944  0.07854  0.07360  1.0000
  Al  Al12      1.0  0.53945  0.07868  0.57359  1.0000
  Al  Al13      1.0  0.28943  0.57873  0.07364  1.0000
  Al  Al14      1.0  0.28941  0.57865  0.57363  1.0000
  Al  Al15      1.0  0.78949  0.57876  0.07363  1.0000
  Al  Al16      1.0  0.78941  0.57859  0.57355  1.0000
  O   O1        1.0  0.27682  0.30042  0.36937  1.0000
  O   O2        1.0  0.27710  0.30057  0.86939  1.0000
  O   O3        1.0  0.77682  0.30035  0.36933  1.0000
  O   O4        1.0  0.77704  0.30058  0.86921  1.0000
  O   O5        1.0  0.52702  0.80040  0.36943  1.0000
  O   O6        1.0  0.52690  0.80035  0.86920  1.0000
  O   O7        1.0  0.02700  0.80040  0.36948  1.0000
  O   O8        1.0  0.02692  0.80045  0.86911  1.0000
  O   O9        1.0  0.16366  0.07407  0.13139  1.0000
  O   O10       1.0  0.16368  0.07390  0.63144  1.0000
  O   O11       1.0  0.66376  0.07409  0.13142  1.0000
  O   O12       1.0  0.66372  0.07416  0.63145  1.0000
  O   O13       1.0  0.41375  0.57418  0.13140  1.0000
  O   O14       1.0  0.41369  0.57428  0.63136  1.0000
  O   O15       1.0  0.91377  0.57409  0.13144  1.0000
  O   O16       1.0  0.91365  0.57393  0.63143  1.0000
  O   O17       1.0  0.97382  0.20054  0.13137  1.0000
  O   O18       1.0  0.97384  0.20080  0.63136  1.0000
  O   O19       1.0  0.47361  0.20044  0.13129  1.0000
  O   O20       1.0  0.47373  0.20069  0.63124  1.0000
  O   O21       1.0  0.22375  0.70061  0.13156  1.0000
  O   O22       1.0  0.22373  0.70062  0.63132  1.0000
  O   O23       1.0  0.72377  0.70063  0.13152  1.0000
  O   O24       1.0  0.72394  0.70065  0.63139  1.0000
  O   O25       1.0  0.08698  0.42704  0.36945  1.0000
  O   O26       1.0  0.08706  0.42713  0.86949  1.0000
  O   O27       1.0  0.58705  0.42727  0.36931  1.0000
  O   O28       1.0  0.58709  0.42713  0.86946  1.0000
  O   O29       1.0  0.33707  0.92695  0.36940  1.0000
  O   O30       1.0  0.33695  0.92705  0.86931  1.0000
  O   O31       1.0  0.83713  0.92697  0.36937  1.0000
  O   O32       1.0  0.83700  0.92691  0.86938  1.0000
  O   O33       1.0  0.22578  0.45095  0.06662  1.0000
  O   O34       1.0  0.22577  0.45093  0.56663  1.0000
  O   O35       1.0  0.72586  0.45105  0.06662  1.0000
  O   O36       1.0  0.72538  0.45116  0.56661  1.0000
  O   O37       1.0  0.47570  0.95090  0.06653  1.0000
  O   O38       1.0  0.47574  0.95099  0.56657  1.0000
  O   O39       1.0  0.97570  0.95085  0.06651  1.0000
  O   O40       1.0  0.97540  0.95128  0.56667  1.0000
  O   O41       1.0  0.02512  0.04998  0.43418  1.0000
  O   O42       1.0  0.02484  0.05005  0.93408  1.0000
  O   O43       1.0  0.52534  0.04989  0.43418  1.0000
  O   O44       1.0  0.52503  0.04992  0.93413  1.0000
  O   O45       1.0  0.27516  0.55001  0.43423  1.0000
  O   O46       1.0  0.27505  0.55016  0.93430  1.0000
  O   O47       1.0  0.77516  0.54995  0.43418  1.0000
  O   O48       1.0  0.77512  0.55012  0.93418  1.0000
