data_image0
_chemical_formula_structural       Na4Ca34Al24O72
_chemical_formula_sum              "Na4 Ca34 Al24 O72"
_cell_length_a       10.8389
_cell_length_b       10.7934
_cell_length_c       15.2479
_cell_angle_alpha    90.0013
_cell_angle_beta     90.0014
_cell_angle_gamma    89.369

_space_group_name_H-M_alt    "P 1"
_space_group_IT_number       1

loop_
  _space_group_symop_operation_xyz
  'x, y, z'

loop_
  _atom_site_type_symbol
  _atom_site_label
  _atom_site_symmetry_multiplicity
  _atom_site_fract_x
  _atom_site_fract_y
  _atom_site_fract_z
  _atom_site_occupancy
  Na  Na1       1.0  0.50049  0.99984  0.49754  1.0000
  Na  Na2       1.0  0.99736  0.49858  0.49940  1.0000
  Na  Na3       1.0  0.50246  0.50180  0.99923  1.0000
  Na  Na4       1.0  0.99983  0.00026  0.99735  1.0000
  Ca  Ca1       1.0  0.52003  0.29465  0.37241  1.0000
  Ca  Ca2       1.0  0.02406  0.22458  0.63186  1.0000
  Ca  Ca3       1.0  0.47691  0.77639  0.13192  1.0000
  Ca  Ca4       1.0  0.98082  0.70611  0.87243  1.0000
  Ca  Ca5       1.0  0.47958  0.70512  0.62511  1.0000
  Ca  Ca6       1.0  0.97850  0.77470  0.36574  1.0000
  Ca  Ca7       1.0  0.52247  0.22618  0.86573  1.0000
  Ca  Ca8       1.0  0.02129  0.29557  0.12522  1.0000
  Ca  Ca9       1.0  0.47813  0.03407  0.25494  1.0000
  Ca  Ca10      1.0  0.99460  0.47665  0.73902  1.0000
  Ca  Ca11      1.0  0.50613  0.52425  0.23900  1.0000
  Ca  Ca12      1.0  0.02281  0.96682  0.75497  1.0000
  Ca  Ca13      1.0  0.52145  0.96754  0.74427  1.0000
  Ca  Ca14      1.0  0.00804  0.52611  0.25902  1.0000
  Ca  Ca15      1.0  0.49268  0.47487  0.75904  1.0000
  Ca  Ca16      1.0  0.97950  0.03334  0.24432  1.0000
  Ca  Ca17      1.0  0.76957  0.24679  0.00764  1.0000
  Ca  Ca18      1.0  0.27267  0.25975  0.99512  1.0000
  Ca  Ca19      1.0  0.22817  0.74127  0.49510  1.0000
  Ca  Ca20      1.0  0.73146  0.75420  0.50764  1.0000
  Ca  Ca21      1.0  0.22472  0.75410  0.99375  1.0000
  Ca  Ca22      1.0  0.73625  0.74438  0.00680  1.0000
  Ca  Ca23      1.0  0.76458  0.25642  0.50679  1.0000
  Ca  Ca24      1.0  0.27637  0.24685  0.49376  1.0000
  Ca  Ca25      1.0  0.50392  0.00002  0.99692  1.0000
  Ca  Ca26      1.0  0.99697  0.00087  0.49694  1.0000
  Ca  Ca27      1.0  0.76975  0.28451  0.24811  1.0000
  Ca  Ca28      1.0  0.27220  0.22878  0.75357  1.0000
  Ca  Ca29      1.0  0.22874  0.77219  0.25359  1.0000
  Ca  Ca30      1.0  0.73092  0.71637  0.74814  1.0000
  Ca  Ca31      1.0  0.23535  0.72033  0.75314  1.0000
  Ca  Ca32      1.0  0.72097  0.77727  0.24976  1.0000
  Ca  Ca33      1.0  0.78008  0.22368  0.74983  1.0000
  Ca  Ca34      1.0  0.26533  0.28065  0.25318  1.0000
  Al  Al1       1.0  0.75257  0.00174  0.60985  1.0000
  Al  Al2       1.0  0.24724  0.49846  0.39347  1.0000
  Al  Al3       1.0  0.25363  0.50254  0.89338  1.0000
  Al  Al4       1.0  0.74839  0.99920  0.10983  1.0000
  Al  Al5       1.0  0.24791  0.99893  0.39298  1.0000
  Al  Al6       1.0  0.75456  0.50062  0.60820  1.0000
  Al  Al7       1.0  0.74632  0.50034  0.10817  1.0000
  Al  Al8       1.0  0.25305  0.00202  0.89296  1.0000
  Al  Al9       1.0  0.72872  0.00916  0.38446  1.0000
  Al  Al10      1.0  0.24194  0.49594  0.61014  1.0000
  Al  Al11      1.0  0.25882  0.50500  0.11024  1.0000
  Al  Al12      1.0  0.77221  0.99182  0.88442  1.0000
  Al  Al13      1.0  0.27063  0.99216  0.61501  1.0000
  Al  Al14      1.0  0.75999  0.50534  0.38824  1.0000
  Al  Al15      1.0  0.74084  0.49554  0.88838  1.0000
  Al  Al16      1.0  0.23030  0.00882  0.11493  1.0000
  Al  Al17      1.0  0.49009  0.80031  0.38032  1.0000
  Al  Al18      1.0  0.99415  0.70729  0.61781  1.0000
  Al  Al19      1.0  0.50677  0.29354  0.11780  1.0000
  Al  Al20      1.0  0.01092  0.20061  0.88036  1.0000
  Al  Al21      1.0  0.51053  0.19775  0.62078  1.0000
  Al  Al22      1.0  0.00680  0.29360  0.38206  1.0000
  Al  Al23      1.0  0.49414  0.70727  0.88206  1.0000
  Al  Al24      1.0  0.99048  0.80318  0.12073  1.0000
  O   O1        1.0  0.52675  0.74954  0.48484  1.0000
  O   O2        1.0  0.01478  0.79074  0.51934  1.0000
  O   O3        1.0  0.48602  0.21017  0.01928  1.0000
  O   O4        1.0  0.97432  0.25142  0.98487  1.0000
  O   O5        1.0  0.48405  0.25075  0.51503  1.0000
  O   O6        1.0  0.97650  0.21118  0.47951  1.0000
  O   O7        1.0  0.52431  0.78972  0.97951  1.0000
  O   O8        1.0  0.01700  0.75019  0.01498  1.0000
  O   O9        1.0  0.70412  0.16848  0.37273  1.0000
  O   O10       1.0  0.20311  0.33919  0.62556  1.0000
  O   O11       1.0  0.29794  0.66166  0.12564  1.0000
  O   O12       1.0  0.79693  0.83251  0.87274  1.0000
  O   O13       1.0  0.29343  0.83211  0.62502  1.0000
  O   O14       1.0  0.79815  0.66229  0.37277  1.0000
  O   O15       1.0  0.70293  0.33854  0.87286  1.0000
  O   O16       1.0  0.20760  0.16888  0.12500  1.0000
  O   O17       1.0  0.58926  0.93064  0.36455  1.0000
  O   O18       1.0  0.10198  0.58301  0.61762  1.0000
  O   O19       1.0  0.39859  0.41756  0.11785  1.0000
  O   O20       1.0  0.91165  0.07039  0.86454  1.0000
  O   O21       1.0  0.41421  0.06487  0.62947  1.0000
  O   O22       1.0  0.89930  0.41804  0.37516  1.0000
  O   O23       1.0  0.60142  0.58262  0.87542  1.0000
  O   O24       1.0  0.08671  0.93615  0.12941  1.0000
  O   O25       1.0  0.89758  0.05159  0.64535  1.0000
  O   O26       1.0  0.36830  0.43825  0.33160  1.0000
  O   O27       1.0  0.13249  0.56257  0.83155  1.0000
  O   O28       1.0  0.60342  0.94927  0.14534  1.0000
  O   O29       1.0  0.10533  0.94789  0.35414  1.0000
  O   O30       1.0  0.62992  0.56024  0.66675  1.0000
  O   O31       1.0  0.87085  0.44053  0.16676  1.0000
  O   O32       1.0  0.39565  0.05292  0.85407  1.0000
  O   O33       1.0  0.67540  0.86923  0.64487  1.0000
  O   O34       1.0  0.15716  0.63097  0.36446  1.0000
  O   O35       1.0  0.34382  0.37005  0.86449  1.0000
  O   O36       1.0  0.82555  0.13168  0.14493  1.0000
  O   O37       1.0  0.32850  0.13007  0.35854  1.0000
  O   O38       1.0  0.84307  0.36749  0.63828  1.0000
  O   O39       1.0  0.65797  0.63354  0.13830  1.0000
  O   O40       1.0  0.17242  0.87089  0.85859  1.0000
  O   O41       1.0  0.33811  0.86188  0.38693  1.0000
  O   O42       1.0  0.85146  0.63274  0.60725  1.0000
  O   O43       1.0  0.64928  0.36836  0.10703  1.0000
  O   O44       1.0  0.16295  0.13914  0.88684  1.0000
  O   O45       1.0  0.66378  0.13889  0.62168  1.0000
  O   O46       1.0  0.14936  0.36695  0.39877  1.0000
  O   O47       1.0  0.35142  0.63414  0.89854  1.0000
  O   O48       1.0  0.83723  0.86207  0.12157  1.0000
  O   O49       1.0  0.50143  0.72532  0.27947  1.0000
  O   O50       1.0  0.00509  0.76835  0.72261  1.0000
  O   O51       1.0  0.49635  0.23243  0.22260  1.0000
  O   O52       1.0  0.99954  0.27560  0.77949  1.0000
  O   O53       1.0  0.48775  0.27351  0.72009  1.0000
  O   O54       1.0  0.00523  0.23116  0.27701  1.0000
  O   O55       1.0  0.49621  0.76960  0.77698  1.0000
  O   O56       1.0  0.01325  0.72746  0.22005  1.0000
  O   O57       1.0  0.77308  0.97712  0.49492  1.0000
  O   O58       1.0  0.28865  0.52940  0.50257  1.0000
  O   O59       1.0  0.21252  0.47178  0.00255  1.0000
  O   O60       1.0  0.72786  0.02393  0.99489  1.0000
  O   O61       1.0  0.21881  0.02918  0.50668  1.0000
  O   O62       1.0  0.72178  0.47185  0.49740  1.0000
  O   O63       1.0  0.77948  0.52920  0.99741  1.0000
  O   O64       1.0  0.28218  0.97178  0.00665  1.0000
  O   O65       1.0  0.83884  0.93044  0.32237  1.0000
  O   O66       1.0  0.34416  0.56348  0.68274  1.0000
  O   O67       1.0  0.15649  0.43747  0.18275  1.0000
  O   O68       1.0  0.66209  0.07048  0.82235  1.0000
  O   O69       1.0  0.16638  0.07133  0.68198  1.0000
  O   O70       1.0  0.65455  0.43828  0.31773  1.0000
  O   O71       1.0  0.84610  0.56263  0.81774  1.0000
  O   O72       1.0  0.33454  0.92964  0.18193  1.0000
