data_image0
_chemical_formula_structural       Mg16Nb16Sn8O64
_chemical_formula_sum              "Mg16 Nb16 Sn8 O64"
_cell_length_a       11.975
_cell_length_b       10.7987
_cell_length_c       10.5029
_cell_angle_alpha    88.8731
_cell_angle_beta     89.9902
_cell_angle_gamma    73.9227

_space_group_name_H-M_alt    "P 1"
_space_group_IT_number       1

loop_
  _space_group_symop_operation_xyz
  'x, y, z'

loop_
  _atom_site_type_symbol
  _atom_site_label
  _atom_site_symmetry_multiplicity
  _atom_site_fract_x
  _atom_site_fract_y
  _atom_site_fract_z
  _atom_site_occupancy
  Mg  Mg1       1.0  0.70319  0.46493  0.12826  1.0000
  Mg  Mg2       1.0  0.70323  0.46488  0.62825  1.0000
  Mg  Mg3       1.0  0.20317  0.46487  0.12826  1.0000
  Mg  Mg4       1.0  0.20323  0.46488  0.62827  1.0000
  Mg  Mg5       1.0  0.93543  0.53607  0.12269  1.0000
  Mg  Mg6       1.0  0.93545  0.53609  0.62271  1.0000
  Mg  Mg7       1.0  0.43545  0.53617  0.12264  1.0000
  Mg  Mg8       1.0  0.43548  0.53612  0.62270  1.0000
  Mg  Mg9       1.0  0.79739  0.53604  0.37267  1.0000
  Mg  Mg10      1.0  0.79736  0.53606  0.87268  1.0000
  Mg  Mg11      1.0  0.29738  0.53607  0.37263  1.0000
  Mg  Mg12      1.0  0.29738  0.53608  0.87267  1.0000
  Mg  Mg13      1.0  0.56514  0.46482  0.37826  1.0000
  Mg  Mg14      1.0  0.56516  0.46492  0.87822  1.0000
  Mg  Mg15      1.0  0.06512  0.46479  0.37827  1.0000
  Mg  Mg16      1.0  0.06515  0.46482  0.87826  1.0000
  Nb  Nb1       1.0  0.65236  0.74723  0.11393  1.0000
  Nb  Nb2       1.0  0.65230  0.74718  0.61401  1.0000
  Nb  Nb3       1.0  0.15232  0.74716  0.11400  1.0000
  Nb  Nb4       1.0  0.15237  0.74718  0.61399  1.0000
  Nb  Nb5       1.0  0.52539  0.25392  0.13701  1.0000
  Nb  Nb6       1.0  0.52539  0.25387  0.63696  1.0000
  Nb  Nb7       1.0  0.02541  0.25383  0.13694  1.0000
  Nb  Nb8       1.0  0.02545  0.25378  0.63700  1.0000
  Nb  Nb9       1.0  0.84827  0.25375  0.38696  1.0000
  Nb  Nb10      1.0  0.84825  0.25373  0.88693  1.0000
  Nb  Nb11      1.0  0.34824  0.25379  0.38694  1.0000
  Nb  Nb12      1.0  0.34829  0.25379  0.88695  1.0000
  Nb  Nb13      1.0  0.97521  0.74703  0.36400  1.0000
  Nb  Nb14      1.0  0.97520  0.74707  0.86396  1.0000
  Nb  Nb15      1.0  0.47517  0.74710  0.36393  1.0000
  Nb  Nb16      1.0  0.47515  0.74719  0.86398  1.0000
  Sn  Sn1       1.0  0.84992  0.99958  0.12543  1.0000
  Sn  Sn2       1.0  0.84984  0.99962  0.62531  1.0000
  Sn  Sn3       1.0  0.34979  0.99998  0.12550  1.0000
  Sn  Sn4       1.0  0.34985  0.99989  0.62539  1.0000
  Sn  Sn5       1.0  0.65069  0.00120  0.37545  1.0000
  Sn  Sn6       1.0  0.65078  0.00154  0.87553  1.0000
  Sn  Sn7       1.0  0.15073  0.00111  0.37543  1.0000
  Sn  Sn8       1.0  0.15095  0.00081  0.87549  1.0000
  O   O1        1.0  0.58282  0.83460  0.26639  1.0000
  O   O2        1.0  0.58269  0.83464  0.76632  1.0000
  O   O3        1.0  0.08285  0.83459  0.26641  1.0000
  O   O4        1.0  0.08301  0.83454  0.76653  1.0000
  O   O5        1.0  0.49990  0.16638  0.48424  1.0000
  O   O6        1.0  0.50001  0.16643  0.98422  1.0000
  O   O7        1.0  0.99992  0.16637  0.48431  1.0000
  O   O8        1.0  0.99975  0.16637  0.98437  1.0000
  O   O9        1.0  0.91780  0.16632  0.23459  1.0000
  O   O10       1.0  0.91778  0.16639  0.73447  1.0000
  O   O11       1.0  0.41766  0.16639  0.23437  1.0000
  O   O12       1.0  0.41773  0.16633  0.73443  1.0000
  O   O13       1.0  0.00068  0.83461  0.01663  1.0000
  O   O14       1.0  0.00071  0.83458  0.51667  1.0000
  O   O15       1.0  0.50075  0.83460  0.01658  1.0000
  O   O16       1.0  0.50078  0.83456  0.51650  1.0000
  O   O17       1.0  0.72923  0.86379  0.05522  1.0000
  O   O18       1.0  0.72909  0.86383  0.55521  1.0000
  O   O19       1.0  0.22905  0.86373  0.05504  1.0000
  O   O20       1.0  0.22908  0.86380  0.55502  1.0000
  O   O21       1.0  0.66018  0.13729  0.19614  1.0000
  O   O22       1.0  0.66022  0.13726  0.69616  1.0000
  O   O23       1.0  0.16035  0.13720  0.19597  1.0000
  O   O24       1.0  0.16039  0.13719  0.69602  1.0000
  O   O25       1.0  0.77146  0.13715  0.44578  1.0000
  O   O26       1.0  0.77142  0.13713  0.94569  1.0000
  O   O27       1.0  0.27151  0.13712  0.44579  1.0000
  O   O28       1.0  0.27163  0.13718  0.94592  1.0000
  O   O29       1.0  0.84037  0.86364  0.30483  1.0000
  O   O30       1.0  0.84039  0.86369  0.80474  1.0000
  O   O31       1.0  0.34025  0.86359  0.30481  1.0000
  O   O32       1.0  0.34016  0.86379  0.80496  1.0000
  O   O33       1.0  0.65274  0.61447  0.47455  1.0000
  O   O34       1.0  0.65269  0.61454  0.97449  1.0000
  O   O35       1.0  0.15274  0.61451  0.47448  1.0000
  O   O36       1.0  0.15270  0.61445  0.97451  1.0000
  O   O37       1.0  0.95957  0.38664  0.27636  1.0000
  O   O38       1.0  0.95963  0.38659  0.77638  1.0000
  O   O39       1.0  0.45955  0.38663  0.27638  1.0000
  O   O40       1.0  0.45962  0.38657  0.77638  1.0000
  O   O41       1.0  0.92023  0.60806  0.44239  1.0000
  O   O42       1.0  0.92020  0.60811  0.94239  1.0000
  O   O43       1.0  0.42022  0.60804  0.44239  1.0000
  O   O44       1.0  0.42021  0.60811  0.94233  1.0000
  O   O45       1.0  0.72399  0.39281  0.30857  1.0000
  O   O46       1.0  0.72401  0.39285  0.80856  1.0000
  O   O47       1.0  0.22393  0.39287  0.30854  1.0000
  O   O48       1.0  0.22397  0.39287  0.80853  1.0000
  O   O49       1.0  0.58034  0.39295  0.05856  1.0000
  O   O50       1.0  0.58038  0.39285  0.55855  1.0000
  O   O51       1.0  0.08033  0.39288  0.05853  1.0000
  O   O52       1.0  0.08037  0.39288  0.55859  1.0000
  O   O53       1.0  0.77659  0.60812  0.19237  1.0000
  O   O54       1.0  0.77658  0.60816  0.69236  1.0000
  O   O55       1.0  0.27658  0.60812  0.19233  1.0000
  O   O56       1.0  0.27661  0.60811  0.69235  1.0000
  O   O57       1.0  0.54101  0.61432  0.22455  1.0000
  O   O58       1.0  0.54100  0.61437  0.72456  1.0000
  O   O59       1.0  0.04102  0.61432  0.22454  1.0000
  O   O60       1.0  0.04101  0.61437  0.72453  1.0000
  O   O61       1.0  0.84781  0.38651  0.02639  1.0000
  O   O62       1.0  0.84788  0.38643  0.52640  1.0000
  O   O63       1.0  0.34784  0.38649  0.02642  1.0000
  O   O64       1.0  0.34784  0.38645  0.52641  1.0000
