data_image0
_chemical_formula_structural       Mg16Ta32O96
_chemical_formula_sum              "Mg16 Ta32 O96"
_cell_length_a       10.2987
_cell_length_b       10.9923
_cell_length_c       15.0044
_cell_angle_alpha    90.0005
_cell_angle_beta     89.999
_cell_angle_gamma    89.9994

_space_group_name_H-M_alt    "P 1"
_space_group_IT_number       1

loop_
  _space_group_symop_operation_xyz
  'x, y, z'

loop_
  _atom_site_type_symbol
  _atom_site_label
  _atom_site_symmetry_multiplicity
  _atom_site_fract_x
  _atom_site_fract_y
  _atom_site_fract_z
  _atom_site_occupancy
  Mg  Mg1       1.0  0.26775  0.16164  0.25028  1.0000
  Mg  Mg2       1.0  0.26775  0.16161  0.75031  1.0000
  Mg  Mg3       1.0  0.26775  0.66164  0.25031  1.0000
  Mg  Mg4       1.0  0.26773  0.66162  0.75030  1.0000
  Mg  Mg5       1.0  0.76774  0.16164  0.25030  1.0000
  Mg  Mg6       1.0  0.76773  0.16163  0.75029  1.0000
  Mg  Mg7       1.0  0.76774  0.66165  0.25030  1.0000
  Mg  Mg8       1.0  0.76775  0.66164  0.75029  1.0000
  Mg  Mg9       1.0  0.01775  0.33926  0.00030  1.0000
  Mg  Mg10      1.0  0.01775  0.33926  0.50030  1.0000
  Mg  Mg11      1.0  0.01775  0.83926  0.00030  1.0000
  Mg  Mg12      1.0  0.01775  0.83927  0.50031  1.0000
  Mg  Mg13      1.0  0.51776  0.33927  0.00028  1.0000
  Mg  Mg14      1.0  0.51775  0.33926  0.50030  1.0000
  Mg  Mg15      1.0  0.51776  0.83929  0.00029  1.0000
  Mg  Mg16      1.0  0.51773  0.83927  0.50030  1.0000
  Ta  Ta1       1.0  0.25531  0.38097  0.37421  1.0000
  Ta  Ta2       1.0  0.25536  0.38095  0.87419  1.0000
  Ta  Ta3       1.0  0.25534  0.88094  0.37420  1.0000
  Ta  Ta4       1.0  0.25533  0.88094  0.87419  1.0000
  Ta  Ta5       1.0  0.75534  0.38098  0.37421  1.0000
  Ta  Ta6       1.0  0.75536  0.38096  0.87420  1.0000
  Ta  Ta7       1.0  0.75532  0.88096  0.37421  1.0000
  Ta  Ta8       1.0  0.75534  0.88095  0.87420  1.0000
  Ta  Ta9       1.0  0.00533  0.11994  0.37641  1.0000
  Ta  Ta10      1.0  0.00533  0.11995  0.87639  1.0000
  Ta  Ta11      1.0  0.00534  0.61998  0.37641  1.0000
  Ta  Ta12      1.0  0.00533  0.61992  0.87640  1.0000
  Ta  Ta13      1.0  0.50532  0.11995  0.37640  1.0000
  Ta  Ta14      1.0  0.50533  0.11995  0.87640  1.0000
  Ta  Ta15      1.0  0.50534  0.61994  0.37640  1.0000
  Ta  Ta16      1.0  0.50533  0.61994  0.87639  1.0000
  Ta  Ta17      1.0  0.00534  0.11996  0.12420  1.0000
  Ta  Ta18      1.0  0.00534  0.11996  0.62419  1.0000
  Ta  Ta19      1.0  0.00534  0.61994  0.12420  1.0000
  Ta  Ta20      1.0  0.00532  0.61993  0.62419  1.0000
  Ta  Ta21      1.0  0.50535  0.11996  0.12419  1.0000
  Ta  Ta22      1.0  0.50534  0.11994  0.62419  1.0000
  Ta  Ta23      1.0  0.50533  0.61996  0.12420  1.0000
  Ta  Ta24      1.0  0.50533  0.61994  0.62419  1.0000
  Ta  Ta25      1.0  0.25534  0.38095  0.12641  1.0000
  Ta  Ta26      1.0  0.25535  0.38094  0.62639  1.0000
  Ta  Ta27      1.0  0.25532  0.88095  0.12639  1.0000
  Ta  Ta28      1.0  0.25532  0.88094  0.62641  1.0000
  Ta  Ta29      1.0  0.75532  0.38096  0.12641  1.0000
  Ta  Ta30      1.0  0.75534  0.38095  0.62639  1.0000
  Ta  Ta31      1.0  0.75534  0.88097  0.12641  1.0000
  Ta  Ta32      1.0  0.75531  0.88095  0.62640  1.0000
  O   O1        1.0  0.34000  0.03278  0.15913  1.0000
  O   O2        1.0  0.34002  0.03276  0.65915  1.0000
  O   O3        1.0  0.33999  0.53277  0.15913  1.0000
  O   O4        1.0  0.33999  0.53274  0.65913  1.0000
  O   O5        1.0  0.84000  0.03280  0.15913  1.0000
  O   O6        1.0  0.83997  0.03276  0.65913  1.0000
  O   O7        1.0  0.84000  0.53279  0.15913  1.0000
  O   O8        1.0  0.83998  0.53275  0.65913  1.0000
  O   O9        1.0  0.09000  0.46815  0.09145  1.0000
  O   O10       1.0  0.08997  0.46815  0.59144  1.0000
  O   O11       1.0  0.08998  0.96814  0.09145  1.0000
  O   O12       1.0  0.08999  0.96813  0.59144  1.0000
  O   O13       1.0  0.58999  0.46814  0.09144  1.0000
  O   O14       1.0  0.59000  0.46812  0.59145  1.0000
  O   O15       1.0  0.59003  0.96815  0.09145  1.0000
  O   O16       1.0  0.59001  0.96812  0.59145  1.0000
  O   O17       1.0  0.38684  0.26117  0.34589  1.0000
  O   O18       1.0  0.38685  0.26117  0.84591  1.0000
  O   O19       1.0  0.38682  0.76117  0.34590  1.0000
  O   O20       1.0  0.38684  0.76116  0.84590  1.0000
  O   O21       1.0  0.88683  0.26120  0.34589  1.0000
  O   O22       1.0  0.88684  0.26117  0.84590  1.0000
  O   O23       1.0  0.88684  0.76116  0.34591  1.0000
  O   O24       1.0  0.88686  0.76118  0.84590  1.0000
  O   O25       1.0  0.13683  0.23969  0.40468  1.0000
  O   O26       1.0  0.13686  0.23969  0.90466  1.0000
  O   O27       1.0  0.13684  0.73974  0.40468  1.0000
  O   O28       1.0  0.13685  0.73971  0.90468  1.0000
  O   O29       1.0  0.63683  0.23969  0.40467  1.0000
  O   O30       1.0  0.63684  0.23972  0.90469  1.0000
  O   O31       1.0  0.63682  0.73975  0.40469  1.0000
  O   O32       1.0  0.63682  0.73970  0.90468  1.0000
  O   O33       1.0  0.13687  0.23973  0.09589  1.0000
  O   O34       1.0  0.13684  0.23971  0.59589  1.0000
  O   O35       1.0  0.13685  0.73973  0.09589  1.0000
  O   O36       1.0  0.13685  0.73971  0.59590  1.0000
  O   O37       1.0  0.63685  0.23973  0.09591  1.0000
  O   O38       1.0  0.63683  0.23972  0.59591  1.0000
  O   O39       1.0  0.63684  0.73973  0.09589  1.0000
  O   O40       1.0  0.63684  0.73972  0.59590  1.0000
  O   O41       1.0  0.38684  0.26118  0.15468  1.0000
  O   O42       1.0  0.38683  0.26116  0.65468  1.0000
  O   O43       1.0  0.38684  0.76119  0.15469  1.0000
  O   O44       1.0  0.38685  0.76117  0.65469  1.0000
  O   O45       1.0  0.88686  0.26118  0.15467  1.0000
  O   O46       1.0  0.88687  0.26116  0.65468  1.0000
  O   O47       1.0  0.88683  0.76122  0.15467  1.0000
  O   O48       1.0  0.88684  0.76119  0.65467  1.0000
  O   O49       1.0  0.08997  0.46814  0.40911  1.0000
  O   O50       1.0  0.09001  0.46810  0.90912  1.0000
  O   O51       1.0  0.08999  0.96814  0.40913  1.0000
  O   O52       1.0  0.08998  0.96812  0.90913  1.0000
  O   O53       1.0  0.59000  0.46814  0.40914  1.0000
  O   O54       1.0  0.59001  0.46812  0.90913  1.0000
  O   O55       1.0  0.59000  0.96811  0.40913  1.0000
  O   O56       1.0  0.59002  0.96812  0.90914  1.0000
  O   O57       1.0  0.33999  0.03275  0.34144  1.0000
  O   O58       1.0  0.34000  0.03274  0.84146  1.0000
  O   O59       1.0  0.33999  0.53276  0.34144  1.0000
  O   O60       1.0  0.34000  0.53275  0.84144  1.0000
  O   O61       1.0  0.84002  0.03279  0.34145  1.0000
  O   O62       1.0  0.84000  0.03274  0.84144  1.0000
  O   O63       1.0  0.84000  0.53277  0.34144  1.0000
  O   O64       1.0  0.83999  0.53276  0.84145  1.0000
  O   O65       1.0  0.07507  0.11496  0.25029  1.0000
  O   O66       1.0  0.07507  0.11493  0.75029  1.0000
  O   O67       1.0  0.07508  0.61496  0.25027  1.0000
  O   O68       1.0  0.07506  0.61495  0.75030  1.0000
  O   O69       1.0  0.57508  0.11496  0.25027  1.0000
  O   O70       1.0  0.57507  0.11492  0.75028  1.0000
  O   O71       1.0  0.57506  0.61496  0.25030  1.0000
  O   O72       1.0  0.57507  0.61493  0.75027  1.0000
  O   O73       1.0  0.32508  0.38594  0.00031  1.0000
  O   O74       1.0  0.32507  0.38593  0.50031  1.0000
  O   O75       1.0  0.32507  0.88595  0.00029  1.0000
  O   O76       1.0  0.32506  0.88595  0.50028  1.0000
  O   O77       1.0  0.82507  0.38596  0.00029  1.0000
  O   O78       1.0  0.82508  0.38596  0.50027  1.0000
  O   O79       1.0  0.82509  0.88595  0.00029  1.0000
  O   O80       1.0  0.82507  0.88597  0.50026  1.0000
  O   O81       1.0  0.20254  0.35606  0.25031  1.0000
  O   O82       1.0  0.20254  0.35604  0.75031  1.0000
  O   O83       1.0  0.20253  0.85606  0.25028  1.0000
  O   O84       1.0  0.20256  0.85603  0.75029  1.0000
  O   O85       1.0  0.70256  0.35607  0.25027  1.0000
  O   O86       1.0  0.70256  0.35603  0.75030  1.0000
  O   O87       1.0  0.70255  0.85608  0.25030  1.0000
  O   O88       1.0  0.70254  0.85605  0.75030  1.0000
  O   O89       1.0  0.45254  0.14484  0.00028  1.0000
  O   O90       1.0  0.45256  0.14484  0.50029  1.0000
  O   O91       1.0  0.45256  0.64485  0.00029  1.0000
  O   O92       1.0  0.45254  0.64482  0.50028  1.0000
  O   O93       1.0  0.95257  0.14483  0.00029  1.0000
  O   O94       1.0  0.95254  0.14483  0.50030  1.0000
  O   O95       1.0  0.95254  0.64481  0.00028  1.0000
  O   O96       1.0  0.95253  0.64484  0.50029  1.0000
