data_image0
_chemical_formula_structural       Rb32Mg16O32
_chemical_formula_sum              "Rb32 Mg16 O32"
_cell_length_a       10.9771
_cell_length_b       12.5623
_cell_length_c       10.9846
_cell_angle_alpha    89.9857
_cell_angle_beta     89.9626
_cell_angle_gamma    90.0049

_space_group_name_H-M_alt    "P 1"
_space_group_IT_number       1

loop_
  _space_group_symop_operation_xyz
  'x, y, z'

loop_
  _atom_site_type_symbol
  _atom_site_label
  _atom_site_symmetry_multiplicity
  _atom_site_fract_x
  _atom_site_fract_y
  _atom_site_fract_z
  _atom_site_occupancy
  Rb  Rb1       1.0  0.15391  0.17968  0.25223  1.0000
  Rb  Rb2       1.0  0.15445  0.18018  0.75223  1.0000
  Rb  Rb3       1.0  0.15352  0.67929  0.25237  1.0000
  Rb  Rb4       1.0  0.15410  0.67994  0.75242  1.0000
  Rb  Rb5       1.0  0.15700  0.31932  0.00247  1.0000
  Rb  Rb6       1.0  0.15691  0.31942  0.50228  1.0000
  Rb  Rb7       1.0  0.15720  0.81935  0.00257  1.0000
  Rb  Rb8       1.0  0.15720  0.81927  0.50215  1.0000
  Rb  Rb9       1.0  0.34702  0.07097  0.00201  1.0000
  Rb  Rb10      1.0  0.34696  0.07111  0.50177  1.0000
  Rb  Rb11      1.0  0.34679  0.57113  0.00184  1.0000
  Rb  Rb12      1.0  0.34678  0.57111  0.50159  1.0000
  Rb  Rb13      1.0  0.34331  0.43129  0.25186  1.0000
  Rb  Rb14      1.0  0.34421  0.43183  0.75182  1.0000
  Rb  Rb15      1.0  0.34362  0.93134  0.25203  1.0000
  Rb  Rb16      1.0  0.34433  0.93180  0.75191  1.0000
  Rb  Rb17      1.0  0.65359  0.07098  0.24950  1.0000
  Rb  Rb18      1.0  0.65427  0.07146  0.74955  1.0000
  Rb  Rb19      1.0  0.65348  0.57104  0.24944  1.0000
  Rb  Rb20      1.0  0.65425  0.57146  0.74938  1.0000
  Rb  Rb21      1.0  0.65710  0.43134  0.49958  1.0000
  Rb  Rb22      1.0  0.65704  0.43142  0.99943  1.0000
  Rb  Rb23      1.0  0.65738  0.93127  0.49969  1.0000
  Rb  Rb24      1.0  0.65743  0.93118  0.99943  1.0000
  Rb  Rb25      1.0  0.84688  0.17956  0.49932  1.0000
  Rb  Rb26      1.0  0.84688  0.17960  0.99886  1.0000
  Rb  Rb27      1.0  0.84674  0.67973  0.49911  1.0000
  Rb  Rb28      1.0  0.84673  0.67951  0.99889  1.0000
  Rb  Rb29      1.0  0.84338  0.31895  0.24897  1.0000
  Rb  Rb30      1.0  0.84400  0.31957  0.74906  1.0000
  Rb  Rb31      1.0  0.84390  0.81937  0.24910  1.0000
  Rb  Rb32      1.0  0.84442  0.81980  0.74924  1.0000
  Mg  Mg1       1.0  0.00029  0.99856  0.12539  1.0000
  Mg  Mg2       1.0  0.00069  0.99882  0.62541  1.0000
  Mg  Mg3       1.0  0.00010  0.49843  0.12525  1.0000
  Mg  Mg4       1.0  0.00038  0.49873  0.62530  1.0000
  Mg  Mg5       1.0  0.99978  0.49741  0.37527  1.0000
  Mg  Mg6       1.0  0.00071  0.49790  0.87528  1.0000
  Mg  Mg7       1.0  0.00046  0.99786  0.37542  1.0000
  Mg  Mg8       1.0  0.00107  0.99816  0.87540  1.0000
  Mg  Mg9       1.0  0.50043  0.25253  0.37531  1.0000
  Mg  Mg10      1.0  0.50049  0.25243  0.87533  1.0000
  Mg  Mg11      1.0  0.50051  0.75252  0.37533  1.0000
  Mg  Mg12      1.0  0.50057  0.75243  0.87534  1.0000
  Mg  Mg13      1.0  0.50020  0.25294  0.12532  1.0000
  Mg  Mg14      1.0  0.50036  0.25293  0.62531  1.0000
  Mg  Mg15      1.0  0.50022  0.75293  0.12533  1.0000
  Mg  Mg16      1.0  0.50037  0.75290  0.62533  1.0000
  O   O1        1.0  0.09162  0.08283  0.50009  1.0000
  O   O2        1.0  0.09177  0.08281  0.00058  1.0000
  O   O3        1.0  0.09119  0.58249  0.49960  1.0000
  O   O4        1.0  0.09159  0.58254  0.00024  1.0000
  O   O5        1.0  0.09013  0.41309  0.25003  1.0000
  O   O6        1.0  0.09099  0.41375  0.74990  1.0000
  O   O7        1.0  0.09057  0.91337  0.25010  1.0000
  O   O8        1.0  0.09128  0.91386  0.75001  1.0000
  O   O9        1.0  0.40918  0.16829  0.25040  1.0000
  O   O10       1.0  0.40945  0.16818  0.75032  1.0000
  O   O11       1.0  0.40891  0.66853  0.25045  1.0000
  O   O12       1.0  0.40929  0.66831  0.75037  1.0000
  O   O13       1.0  0.41011  0.33748  0.50019  1.0000
  O   O14       1.0  0.41011  0.33744  0.00008  1.0000
  O   O15       1.0  0.41037  0.83762  0.50020  1.0000
  O   O16       1.0  0.41030  0.83754  0.00009  1.0000
  O   O17       1.0  0.59154  0.16828  0.00051  1.0000
  O   O18       1.0  0.59162  0.16838  0.50037  1.0000
  O   O19       1.0  0.59144  0.66819  0.00052  1.0000
  O   O20       1.0  0.59146  0.66823  0.50040  1.0000
  O   O21       1.0  0.59035  0.33764  0.25017  1.0000
  O   O22       1.0  0.59075  0.33742  0.75024  1.0000
  O   O23       1.0  0.59075  0.83738  0.25017  1.0000
  O   O24       1.0  0.59102  0.83726  0.75024  1.0000
  O   O25       1.0  0.90902  0.08240  0.25062  1.0000
  O   O26       1.0  0.90969  0.08288  0.75072  1.0000
  O   O27       1.0  0.90869  0.58220  0.25044  1.0000
  O   O28       1.0  0.90948  0.58284  0.75065  1.0000
  O   O29       1.0  0.91023  0.41330  0.00024  1.0000
  O   O30       1.0  0.90994  0.41322  0.50093  1.0000
  O   O31       1.0  0.91059  0.91345  0.00013  1.0000
  O   O32       1.0  0.91043  0.91348  0.50067  1.0000
