data_image0
_chemical_formula_structural       Al32In32O96
_chemical_formula_sum              "Al32 In32 O96"
_cell_length_a       10.1181
_cell_length_b       10.488
_cell_length_c       14.753
_cell_angle_alpha    89.9992
_cell_angle_beta     90.0003
_cell_angle_gamma    89.9987

_space_group_name_H-M_alt    "P 1"
_space_group_IT_number       1

loop_
  _space_group_symop_operation_xyz
  'x, y, z'

loop_
  _atom_site_type_symbol
  _atom_site_label
  _atom_site_symmetry_multiplicity
  _atom_site_fract_x
  _atom_site_fract_y
  _atom_site_fract_z
  _atom_site_occupancy
  Al  Al1       1.0  0.00047  0.25048  0.00037  1.0000
  Al  Al2       1.0  0.00048  0.25049  0.50035  1.0000
  Al  Al3       1.0  0.00044  0.75047  0.00032  1.0000
  Al  Al4       1.0  0.00043  0.75048  0.50035  1.0000
  Al  Al5       1.0  0.50048  0.25050  0.00033  1.0000
  Al  Al6       1.0  0.50045  0.25048  0.50037  1.0000
  Al  Al7       1.0  0.50047  0.75048  0.00035  1.0000
  Al  Al8       1.0  0.50045  0.75048  0.50033  1.0000
  Al  Al9       1.0  0.00040  0.25047  0.25035  1.0000
  Al  Al10      1.0  0.00039  0.25048  0.75035  1.0000
  Al  Al11      1.0  0.00051  0.75048  0.25032  1.0000
  Al  Al12      1.0  0.00045  0.75050  0.75034  1.0000
  Al  Al13      1.0  0.50040  0.25048  0.25037  1.0000
  Al  Al14      1.0  0.50047  0.25048  0.75037  1.0000
  Al  Al15      1.0  0.50041  0.75046  0.25030  1.0000
  Al  Al16      1.0  0.50043  0.75048  0.75032  1.0000
  Al  Al17      1.0  0.25047  0.00046  0.00031  1.0000
  Al  Al18      1.0  0.25042  0.00047  0.50033  1.0000
  Al  Al19      1.0  0.25045  0.50049  0.00036  1.0000
  Al  Al20      1.0  0.25045  0.50048  0.50035  1.0000
  Al  Al21      1.0  0.75048  0.00046  0.00033  1.0000
  Al  Al22      1.0  0.75048  0.00051  0.50035  1.0000
  Al  Al23      1.0  0.75042  0.50049  0.00033  1.0000
  Al  Al24      1.0  0.75045  0.50047  0.50030  1.0000
  Al  Al25      1.0  0.25046  0.00046  0.25032  1.0000
  Al  Al26      1.0  0.25046  0.00049  0.75032  1.0000
  Al  Al27      1.0  0.25042  0.50040  0.25037  1.0000
  Al  Al28      1.0  0.25043  0.50051  0.75035  1.0000
  Al  Al29      1.0  0.75043  0.00048  0.25035  1.0000
  Al  Al30      1.0  0.75047  0.00047  0.75035  1.0000
  Al  Al31      1.0  0.75042  0.50050  0.25034  1.0000
  Al  Al32      1.0  0.75044  0.50049  0.75032  1.0000
  In  In1       1.0  0.00919  0.47263  0.37533  1.0000
  In  In2       1.0  0.00921  0.47260  0.87536  1.0000
  In  In3       1.0  0.00919  0.97256  0.37528  1.0000
  In  In4       1.0  0.00923  0.97262  0.87533  1.0000
  In  In5       1.0  0.50921  0.47260  0.37532  1.0000
  In  In6       1.0  0.50917  0.47262  0.87529  1.0000
  In  In7       1.0  0.50924  0.97260  0.37537  1.0000
  In  In8       1.0  0.50923  0.97263  0.87534  1.0000
  In  In9       1.0  0.24165  0.22256  0.37532  1.0000
  In  In10      1.0  0.24166  0.22261  0.87531  1.0000
  In  In11      1.0  0.24170  0.72261  0.37533  1.0000
  In  In12      1.0  0.24169  0.72259  0.87529  1.0000
  In  In13      1.0  0.74169  0.22261  0.37532  1.0000
  In  In14      1.0  0.74170  0.22257  0.87533  1.0000
  In  In15      1.0  0.74168  0.72265  0.37531  1.0000
  In  In16      1.0  0.74166  0.72263  0.87531  1.0000
  In  In17      1.0  0.25922  0.27832  0.12530  1.0000
  In  In18      1.0  0.25922  0.27838  0.62534  1.0000
  In  In19      1.0  0.25918  0.77836  0.12530  1.0000
  In  In20      1.0  0.25920  0.77836  0.62530  1.0000
  In  In21      1.0  0.75917  0.27835  0.12527  1.0000
  In  In22      1.0  0.75921  0.27835  0.62532  1.0000
  In  In23      1.0  0.75922  0.77837  0.12532  1.0000
  In  In24      1.0  0.75919  0.77835  0.62533  1.0000
  In  In25      1.0  0.49165  0.02839  0.12533  1.0000
  In  In26      1.0  0.49168  0.02835  0.62528  1.0000
  In  In27      1.0  0.49162  0.52835  0.12535  1.0000
  In  In28      1.0  0.49168  0.52837  0.62534  1.0000
  In  In29      1.0  0.99166  0.02837  0.12535  1.0000
  In  In30      1.0  0.99172  0.02835  0.62530  1.0000
  In  In31      1.0  0.99165  0.52835  0.12528  1.0000
  In  In32      1.0  0.99163  0.52836  0.62531  1.0000
  O   O1        1.0  0.05547  0.22857  0.12535  1.0000
  O   O2        1.0  0.05549  0.22856  0.62535  1.0000
  O   O3        1.0  0.05548  0.72852  0.12536  1.0000
  O   O4        1.0  0.05548  0.72856  0.62536  1.0000
  O   O5        1.0  0.55544  0.22858  0.12536  1.0000
  O   O6        1.0  0.55548  0.22857  0.62535  1.0000
  O   O7        1.0  0.55552  0.72855  0.12533  1.0000
  O   O8        1.0  0.55547  0.72861  0.62533  1.0000
  O   O9        1.0  0.09901  0.10085  0.27934  1.0000
  O   O10       1.0  0.09901  0.10088  0.77932  1.0000
  O   O11       1.0  0.09907  0.60088  0.27941  1.0000
  O   O12       1.0  0.09905  0.60093  0.77939  1.0000
  O   O13       1.0  0.59901  0.10087  0.27937  1.0000
  O   O14       1.0  0.59905  0.10087  0.77933  1.0000
  O   O15       1.0  0.59898  0.60087  0.27932  1.0000
  O   O16       1.0  0.59904  0.60088  0.77929  1.0000
  O   O17       1.0  0.09901  0.10085  0.47132  1.0000
  O   O18       1.0  0.09909  0.10088  0.97134  1.0000
  O   O19       1.0  0.09902  0.60086  0.47137  1.0000
  O   O20       1.0  0.09900  0.60084  0.97138  1.0000
  O   O21       1.0  0.59903  0.10085  0.47139  1.0000
  O   O22       1.0  0.59912  0.10088  0.97131  1.0000
  O   O23       1.0  0.59901  0.60089  0.47131  1.0000
  O   O24       1.0  0.59898  0.60082  0.97135  1.0000
  O   O25       1.0  0.15182  0.35086  0.27940  1.0000
  O   O26       1.0  0.15184  0.35089  0.77936  1.0000
  O   O27       1.0  0.15191  0.85086  0.27933  1.0000
  O   O28       1.0  0.15187  0.85090  0.77933  1.0000
  O   O29       1.0  0.65179  0.35092  0.27939  1.0000
  O   O30       1.0  0.65189  0.35087  0.77935  1.0000
  O   O31       1.0  0.65188  0.85087  0.27932  1.0000
  O   O32       1.0  0.65185  0.85090  0.77935  1.0000
  O   O33       1.0  0.15191  0.35082  0.47139  1.0000
  O   O34       1.0  0.15190  0.35086  0.97135  1.0000
  O   O35       1.0  0.15189  0.85082  0.47137  1.0000
  O   O36       1.0  0.15192  0.85080  0.97136  1.0000
  O   O37       1.0  0.65189  0.35083  0.47134  1.0000
  O   O38       1.0  0.65193  0.35083  0.97136  1.0000
  O   O39       1.0  0.65188  0.85089  0.47133  1.0000
  O   O40       1.0  0.65191  0.85084  0.97135  1.0000
  O   O41       1.0  0.19536  0.47849  0.12535  1.0000
  O   O42       1.0  0.19540  0.47859  0.62536  1.0000
  O   O43       1.0  0.19538  0.97856  0.12534  1.0000
  O   O44       1.0  0.19543  0.97858  0.62533  1.0000
  O   O45       1.0  0.69536  0.47854  0.12536  1.0000
  O   O46       1.0  0.69541  0.47859  0.62532  1.0000
  O   O47       1.0  0.69539  0.97855  0.12534  1.0000
  O   O48       1.0  0.69544  0.97856  0.62535  1.0000
  O   O49       1.0  0.30551  0.02238  0.37533  1.0000
  O   O50       1.0  0.30550  0.02241  0.87533  1.0000
  O   O51       1.0  0.30551  0.52239  0.37539  1.0000
  O   O52       1.0  0.30548  0.52244  0.87535  1.0000
  O   O53       1.0  0.80550  0.02243  0.37533  1.0000
  O   O54       1.0  0.80551  0.02237  0.87533  1.0000
  O   O55       1.0  0.80547  0.52246  0.37536  1.0000
  O   O56       1.0  0.80549  0.52242  0.87533  1.0000
  O   O57       1.0  0.34910  0.15000  0.02937  1.0000
  O   O58       1.0  0.34902  0.15006  0.52936  1.0000
  O   O59       1.0  0.34903  0.65008  0.02935  1.0000
  O   O60       1.0  0.34906  0.65006  0.52937  1.0000
  O   O61       1.0  0.84908  0.15003  0.02935  1.0000
  O   O62       1.0  0.84906  0.15010  0.52933  1.0000
  O   O63       1.0  0.84904  0.65006  0.02934  1.0000
  O   O64       1.0  0.84903  0.65006  0.52936  1.0000
  O   O65       1.0  0.34897  0.15010  0.22136  1.0000
  O   O66       1.0  0.34904  0.15014  0.72135  1.0000
  O   O67       1.0  0.34898  0.65004  0.22132  1.0000
  O   O68       1.0  0.34903  0.65010  0.72133  1.0000
  O   O69       1.0  0.84897  0.15012  0.22131  1.0000
  O   O70       1.0  0.84898  0.15012  0.72138  1.0000
  O   O71       1.0  0.84903  0.65012  0.22134  1.0000
  O   O72       1.0  0.84901  0.65013  0.72134  1.0000
  O   O73       1.0  0.40186  0.40008  0.02935  1.0000
  O   O74       1.0  0.40187  0.40005  0.52942  1.0000
  O   O75       1.0  0.40190  0.90010  0.02932  1.0000
  O   O76       1.0  0.40184  0.90006  0.52930  1.0000
  O   O77       1.0  0.90185  0.40008  0.02933  1.0000
  O   O78       1.0  0.90184  0.40003  0.52935  1.0000
  O   O79       1.0  0.90190  0.90008  0.02935  1.0000
  O   O80       1.0  0.90188  0.90010  0.52933  1.0000
  O   O81       1.0  0.40181  0.40004  0.22136  1.0000
  O   O82       1.0  0.40192  0.40016  0.72145  1.0000
  O   O83       1.0  0.40186  0.90005  0.22128  1.0000
  O   O84       1.0  0.40187  0.90009  0.72128  1.0000
  O   O85       1.0  0.90186  0.40011  0.22134  1.0000
  O   O86       1.0  0.90186  0.40011  0.72133  1.0000
  O   O87       1.0  0.90195  0.90015  0.22141  1.0000
  O   O88       1.0  0.90193  0.90014  0.72134  1.0000
  O   O89       1.0  0.44537  0.27239  0.37537  1.0000
  O   O90       1.0  0.44540  0.27239  0.87538  1.0000
  O   O91       1.0  0.44542  0.77242  0.37531  1.0000
  O   O92       1.0  0.44545  0.77241  0.87533  1.0000
  O   O93       1.0  0.94540  0.27243  0.37533  1.0000
  O   O94       1.0  0.94545  0.27234  0.87537  1.0000
  O   O95       1.0  0.94543  0.77239  0.37535  1.0000
  O   O96       1.0  0.94538  0.77244  0.87533  1.0000
