data_image0
_chemical_formula_structural       Cs32Hf16O48
_chemical_formula_sum              "Cs32 Hf16 O48"
_cell_length_a       15.4788
_cell_length_b       11.3279
_cell_length_c       11.7414
_cell_angle_alpha    90
_cell_angle_beta     90
_cell_angle_gamma    90

_space_group_name_H-M_alt    "P 1"
_space_group_IT_number       1

loop_
  _space_group_symop_operation_xyz
  'x, y, z'

loop_
  _atom_site_type_symbol
  _atom_site_label
  _atom_site_symmetry_multiplicity
  _atom_site_fract_x
  _atom_site_fract_y
  _atom_site_fract_z
  _atom_site_occupancy
  Cs  Cs1       1.0  0.17745  0.83803  0.37545  1.0000
  Cs  Cs2       1.0  0.17737  0.83785  0.87557  1.0000
  Cs  Cs3       1.0  0.42746  0.33792  0.37552  1.0000
  Cs  Cs4       1.0  0.42738  0.33799  0.87553  1.0000
  Cs  Cs5       1.0  0.67735  0.83757  0.37530  1.0000
  Cs  Cs6       1.0  0.67728  0.83785  0.87546  1.0000
  Cs  Cs7       1.0  0.92747  0.33751  0.37548  1.0000
  Cs  Cs8       1.0  0.92735  0.33780  0.87554  1.0000
  Cs  Cs9       1.0  0.32332  0.83776  0.12534  1.0000
  Cs  Cs10      1.0  0.32323  0.83787  0.62550  1.0000
  Cs  Cs11      1.0  0.57327  0.33755  0.12544  1.0000
  Cs  Cs12      1.0  0.57324  0.33785  0.62561  1.0000
  Cs  Cs13      1.0  0.82340  0.83749  0.12547  1.0000
  Cs  Cs14      1.0  0.82331  0.83770  0.62543  1.0000
  Cs  Cs15      1.0  0.07317  0.33785  0.12553  1.0000
  Cs  Cs16      1.0  0.07325  0.33777  0.62546  1.0000
  Cs  Cs17      1.0  0.32330  0.16306  0.12524  1.0000
  Cs  Cs18      1.0  0.32344  0.16317  0.62530  1.0000
  Cs  Cs19      1.0  0.57341  0.66293  0.12532  1.0000
  Cs  Cs20      1.0  0.57320  0.66304  0.62518  1.0000
  Cs  Cs21      1.0  0.82338  0.16288  0.12536  1.0000
  Cs  Cs22      1.0  0.82335  0.16318  0.62548  1.0000
  Cs  Cs23      1.0  0.07332  0.66310  0.12540  1.0000
  Cs  Cs24      1.0  0.07337  0.66317  0.62555  1.0000
  Cs  Cs25      1.0  0.17748  0.16331  0.37537  1.0000
  Cs  Cs26      1.0  0.17741  0.16333  0.87518  1.0000
  Cs  Cs27      1.0  0.42734  0.66318  0.37514  1.0000
  Cs  Cs28      1.0  0.42742  0.66335  0.87553  1.0000
  Cs  Cs29      1.0  0.67744  0.16299  0.37557  1.0000
  Cs  Cs30      1.0  0.67743  0.16307  0.87547  1.0000
  Cs  Cs31      1.0  0.92744  0.66282  0.37557  1.0000
  Cs  Cs32      1.0  0.92732  0.66320  0.87544  1.0000
  Hf  Hf1       1.0  0.04120  0.00038  0.12541  1.0000
  Hf  Hf2       1.0  0.04113  0.00037  0.62535  1.0000
  Hf  Hf3       1.0  0.29111  0.50041  0.12548  1.0000
  Hf  Hf4       1.0  0.29117  0.50046  0.62546  1.0000
  Hf  Hf5       1.0  0.54117  0.00051  0.12540  1.0000
  Hf  Hf6       1.0  0.54116  0.00040  0.62543  1.0000
  Hf  Hf7       1.0  0.79115  0.50035  0.12548  1.0000
  Hf  Hf8       1.0  0.79116  0.50036  0.62551  1.0000
  Hf  Hf9       1.0  0.45953  0.00057  0.37539  1.0000
  Hf  Hf10      1.0  0.45950  0.00058  0.87537  1.0000
  Hf  Hf11      1.0  0.70957  0.50033  0.37552  1.0000
  Hf  Hf12      1.0  0.70946  0.50042  0.87543  1.0000
  Hf  Hf13      1.0  0.95948  0.00030  0.37537  1.0000
  Hf  Hf14      1.0  0.95959  0.00043  0.87542  1.0000
  Hf  Hf15      1.0  0.20948  0.50040  0.37549  1.0000
  Hf  Hf16      1.0  0.20950  0.50057  0.87550  1.0000
  O   O1        1.0  0.25028  0.61687  0.00050  1.0000
  O   O2        1.0  0.25032  0.61682  0.50045  1.0000
  O   O3        1.0  0.50031  0.11690  0.00039  1.0000
  O   O4        1.0  0.50035  0.11679  0.50043  1.0000
  O   O5        1.0  0.75017  0.61669  0.00055  1.0000
  O   O6        1.0  0.75033  0.61671  0.50052  1.0000
  O   O7        1.0  0.00054  0.11680  0.00036  1.0000
  O   O8        1.0  0.00031  0.11672  0.50033  1.0000
  O   O9        1.0  0.25024  0.61671  0.25039  1.0000
  O   O10       1.0  0.25032  0.61688  0.75046  1.0000
  O   O11       1.0  0.50040  0.11692  0.25044  1.0000
  O   O12       1.0  0.50035  0.11686  0.75037  1.0000
  O   O13       1.0  0.75037  0.61664  0.25053  1.0000
  O   O14       1.0  0.75025  0.61674  0.75044  1.0000
  O   O15       1.0  0.00028  0.11663  0.25032  1.0000
  O   O16       1.0  0.00032  0.11676  0.75034  1.0000
  O   O17       1.0  0.33625  0.00072  0.37533  1.0000
  O   O18       1.0  0.33623  0.00050  0.87532  1.0000
  O   O19       1.0  0.58629  0.50041  0.37554  1.0000
  O   O20       1.0  0.58618  0.50033  0.87547  1.0000
  O   O21       1.0  0.83621  0.00009  0.37526  1.0000
  O   O22       1.0  0.83631  0.00032  0.87552  1.0000
  O   O23       1.0  0.08622  0.50013  0.37536  1.0000
  O   O24       1.0  0.08624  0.50058  0.87549  1.0000
  O   O25       1.0  0.16446  0.00032  0.12541  1.0000
  O   O26       1.0  0.16439  0.00035  0.62532  1.0000
  O   O27       1.0  0.41438  0.50038  0.12564  1.0000
  O   O28       1.0  0.41444  0.50040  0.62525  1.0000
  O   O29       1.0  0.66444  0.00048  0.12530  1.0000
  O   O30       1.0  0.66443  0.00034  0.62538  1.0000
  O   O31       1.0  0.91442  0.50061  0.12548  1.0000
  O   O32       1.0  0.91441  0.50043  0.62568  1.0000
  O   O33       1.0  0.25021  0.38412  0.00052  1.0000
  O   O34       1.0  0.25026  0.38412  0.50056  1.0000
  O   O35       1.0  0.50030  0.88426  0.00036  1.0000
  O   O36       1.0  0.50030  0.88417  0.50038  1.0000
  O   O37       1.0  0.75040  0.38405  0.00036  1.0000
  O   O38       1.0  0.75051  0.38395  0.50048  1.0000
  O   O39       1.0  0.00034  0.88407  0.00045  1.0000
  O   O40       1.0  0.00023  0.88400  0.50045  1.0000
  O   O41       1.0  0.25034  0.38405  0.25057  1.0000
  O   O42       1.0  0.25039  0.38421  0.75054  1.0000
  O   O43       1.0  0.50040  0.88421  0.25041  1.0000
  O   O44       1.0  0.50033  0.88411  0.75051  1.0000
  O   O45       1.0  0.75033  0.38400  0.25045  1.0000
  O   O46       1.0  0.75035  0.38404  0.75050  1.0000
  O   O47       1.0  0.00040  0.88397  0.25047  1.0000
  O   O48       1.0  0.00043  0.88411  0.75046  1.0000
