data_image0
_chemical_formula_structural       Y16Nb16O64
_chemical_formula_sum              "Y16 Nb16 O64"
_cell_length_a       10.4326
_cell_length_b       10.4315
_cell_length_c       10.9812
_cell_angle_alpha    89.9922
_cell_angle_beta     90.0094
_cell_angle_gamma    90.0049

_space_group_name_H-M_alt    "P 1"
_space_group_IT_number       1

loop_
  _space_group_symop_operation_xyz
  'x, y, z'

loop_
  _atom_site_type_symbol
  _atom_site_label
  _atom_site_symmetry_multiplicity
  _atom_site_fract_x
  _atom_site_fract_y
  _atom_site_fract_z
  _atom_site_occupancy
  Y   Y1        1.0  0.25045  0.37554  0.12538  1.0000
  Y   Y2        1.0  0.25067  0.87545  0.12544  1.0000
  Y   Y3        1.0  0.75073  0.37547  0.12538  1.0000
  Y   Y4        1.0  0.75045  0.87559  0.12538  1.0000
  Y   Y5        1.0  0.50042  0.62541  0.62545  1.0000
  Y   Y6        1.0  0.50052  0.12545  0.62553  1.0000
  Y   Y7        1.0  0.00043  0.62540  0.62531  1.0000
  Y   Y8        1.0  0.00048  0.12543  0.62541  1.0000
  Y   Y9        1.0  0.00046  0.87537  0.37542  1.0000
  Y   Y10       1.0  0.00059  0.37550  0.37545  1.0000
  Y   Y11       1.0  0.50052  0.87557  0.37542  1.0000
  Y   Y12       1.0  0.50041  0.37549  0.37539  1.0000
  Y   Y13       1.0  0.25058  0.12545  0.87536  1.0000
  Y   Y14       1.0  0.25048  0.62546  0.87548  1.0000
  Y   Y15       1.0  0.75051  0.12542  0.87531  1.0000
  Y   Y16       1.0  0.75049  0.62552  0.87541  1.0000
  Nb  Nb1       1.0  0.00061  0.12532  0.12527  1.0000
  Nb  Nb2       1.0  0.00041  0.62550  0.12541  1.0000
  Nb  Nb3       1.0  0.50059  0.12558  0.12537  1.0000
  Nb  Nb4       1.0  0.50071  0.62551  0.12540  1.0000
  Nb  Nb5       1.0  0.25054  0.37548  0.62556  1.0000
  Nb  Nb6       1.0  0.25051  0.87544  0.62535  1.0000
  Nb  Nb7       1.0  0.75053  0.37548  0.62537  1.0000
  Nb  Nb8       1.0  0.75048  0.87538  0.62548  1.0000
  Nb  Nb9       1.0  0.25044  0.12537  0.37555  1.0000
  Nb  Nb10      1.0  0.25054  0.62554  0.37543  1.0000
  Nb  Nb11      1.0  0.75053  0.12559  0.37548  1.0000
  Nb  Nb12      1.0  0.75040  0.62548  0.37546  1.0000
  Nb  Nb13      1.0  0.50057  0.37540  0.87555  1.0000
  Nb  Nb14      1.0  0.50043  0.87554  0.87533  1.0000
  Nb  Nb15      1.0  0.00044  0.37539  0.87530  1.0000
  Nb  Nb16      1.0  0.00050  0.87556  0.87536  1.0000
  O   O1        1.0  0.37501  0.21576  0.03461  1.0000
  O   O2        1.0  0.37525  0.71578  0.03459  1.0000
  O   O3        1.0  0.87534  0.21577  0.03428  1.0000
  O   O4        1.0  0.87504  0.71585  0.03456  1.0000
  O   O5        1.0  0.62509  0.46572  0.53446  1.0000
  O   O6        1.0  0.62504  0.96553  0.53466  1.0000
  O   O7        1.0  0.12515  0.46573  0.53461  1.0000
  O   O8        1.0  0.12536  0.96590  0.53433  1.0000
  O   O9        1.0  0.12621  0.03531  0.03445  1.0000
  O   O10       1.0  0.12584  0.53532  0.03454  1.0000
  O   O11       1.0  0.62591  0.03524  0.03439  1.0000
  O   O12       1.0  0.62609  0.53530  0.03448  1.0000
  O   O13       1.0  0.37583  0.28524  0.53462  1.0000
  O   O14       1.0  0.37583  0.78528  0.53441  1.0000
  O   O15       1.0  0.87602  0.28530  0.53451  1.0000
  O   O16       1.0  0.87566  0.78512  0.53430  1.0000
  O   O17       1.0  0.34058  0.25074  0.28457  1.0000
  O   O18       1.0  0.34076  0.75107  0.28463  1.0000
  O   O19       1.0  0.84082  0.25075  0.28444  1.0000
  O   O20       1.0  0.84072  0.75075  0.28447  1.0000
  O   O21       1.0  0.59083  0.50064  0.78454  1.0000
  O   O22       1.0  0.59081  0.00084  0.78443  1.0000
  O   O23       1.0  0.09068  0.50082  0.78443  1.0000
  O   O24       1.0  0.09076  0.00080  0.78434  1.0000
  O   O25       1.0  0.16041  0.99997  0.28453  1.0000
  O   O26       1.0  0.16051  0.49987  0.28469  1.0000
  O   O27       1.0  0.66027  0.00036  0.28446  1.0000
  O   O28       1.0  0.66033  0.50003  0.28449  1.0000
  O   O29       1.0  0.41035  0.24999  0.78471  1.0000
  O   O30       1.0  0.41023  0.75007  0.78447  1.0000
  O   O31       1.0  0.91021  0.24992  0.78441  1.0000
  O   O32       1.0  0.91027  0.75023  0.78437  1.0000
  O   O33       1.0  0.87584  0.03519  0.46640  1.0000
  O   O34       1.0  0.87570  0.53503  0.46642  1.0000
  O   O35       1.0  0.37602  0.03530  0.46644  1.0000
  O   O36       1.0  0.37587  0.53525  0.46642  1.0000
  O   O37       1.0  0.12598  0.28536  0.96619  1.0000
  O   O38       1.0  0.12588  0.78538  0.96632  1.0000
  O   O39       1.0  0.62596  0.28515  0.96645  1.0000
  O   O40       1.0  0.62595  0.78542  0.96619  1.0000
  O   O41       1.0  0.12510  0.21576  0.46633  1.0000
  O   O42       1.0  0.12508  0.71572  0.46634  1.0000
  O   O43       1.0  0.62506  0.21571  0.46631  1.0000
  O   O44       1.0  0.62490  0.71564  0.46621  1.0000
  O   O45       1.0  0.37519  0.46569  0.96638  1.0000
  O   O46       1.0  0.37520  0.96574  0.96630  1.0000
  O   O47       1.0  0.87533  0.46580  0.96638  1.0000
  O   O48       1.0  0.87540  0.96588  0.96648  1.0000
  O   O49       1.0  0.91049  0.99988  0.21627  1.0000
  O   O50       1.0  0.91035  0.50009  0.21639  1.0000
  O   O51       1.0  0.41039  0.00012  0.21625  1.0000
  O   O52       1.0  0.41033  0.50030  0.21634  1.0000
  O   O53       1.0  0.16029  0.25005  0.71637  1.0000
  O   O54       1.0  0.16031  0.74999  0.71617  1.0000
  O   O55       1.0  0.66025  0.25008  0.71626  1.0000
  O   O56       1.0  0.66029  0.74985  0.71623  1.0000
  O   O57       1.0  0.09061  0.25079  0.21622  1.0000
  O   O58       1.0  0.09089  0.75060  0.21646  1.0000
  O   O59       1.0  0.59072  0.25109  0.21626  1.0000
  O   O60       1.0  0.59088  0.75091  0.21638  1.0000
  O   O61       1.0  0.34074  0.50082  0.71657  1.0000
  O   O62       1.0  0.34086  0.00068  0.71645  1.0000
  O   O63       1.0  0.84078  0.50065  0.71652  1.0000
  O   O64       1.0  0.84067  0.00080  0.71643  1.0000
