data_image0
_chemical_formula_structural       Rb16Ca16Si24O72
_chemical_formula_sum              "Rb16 Ca16 Si24 O72"
_cell_length_a       14.8205
_cell_length_b       13.2316
_cell_length_c       10.6194
_cell_angle_alpha    93.6626
_cell_angle_beta     90.0019
_cell_angle_gamma    90.0034

_space_group_name_H-M_alt    "P 1"
_space_group_IT_number       1

loop_
  _space_group_symop_operation_xyz
  'x, y, z'

loop_
  _atom_site_type_symbol
  _atom_site_label
  _atom_site_symmetry_multiplicity
  _atom_site_fract_x
  _atom_site_fract_y
  _atom_site_fract_z
  _atom_site_occupancy
  Rb  Rb1       1.0  0.20493  0.60600  0.77388  1.0000
  Rb  Rb2       1.0  0.20496  0.10610  0.77371  1.0000
  Rb  Rb3       1.0  0.70502  0.60601  0.77379  1.0000
  Rb  Rb4       1.0  0.70483  0.10600  0.77356  1.0000
  Rb  Rb5       1.0  0.29564  0.35607  0.27365  1.0000
  Rb  Rb6       1.0  0.29575  0.85601  0.27375  1.0000
  Rb  Rb7       1.0  0.79560  0.35603  0.27357  1.0000
  Rb  Rb8       1.0  0.79584  0.85633  0.27379  1.0000
  Rb  Rb9       1.0  0.33002  0.86409  0.89984  1.0000
  Rb  Rb10      1.0  0.32994  0.36419  0.89987  1.0000
  Rb  Rb11      1.0  0.82980  0.86385  0.89963  1.0000
  Rb  Rb12      1.0  0.82988  0.36406  0.89970  1.0000
  Rb  Rb13      1.0  0.17077  0.61399  0.39963  1.0000
  Rb  Rb14      1.0  0.17071  0.11400  0.39987  1.0000
  Rb  Rb15      1.0  0.67057  0.61409  0.39972  1.0000
  Rb  Rb16      1.0  0.67067  0.11408  0.39980  1.0000
  Ca  Ca1       1.0  0.41744  0.72943  0.58657  1.0000
  Ca  Ca2       1.0  0.41744  0.22951  0.58666  1.0000
  Ca  Ca3       1.0  0.91752  0.72946  0.58662  1.0000
  Ca  Ca4       1.0  0.91747  0.22946  0.58665  1.0000
  Ca  Ca5       1.0  0.08318  0.47950  0.08671  1.0000
  Ca  Ca6       1.0  0.08316  0.97955  0.08660  1.0000
  Ca  Ca7       1.0  0.58314  0.47948  0.08662  1.0000
  Ca  Ca8       1.0  0.58310  0.97947  0.08664  1.0000
  Ca  Ca9       1.0  0.46773  0.59879  0.85534  1.0000
  Ca  Ca10      1.0  0.46774  0.09871  0.85529  1.0000
  Ca  Ca11      1.0  0.96776  0.59872  0.85535  1.0000
  Ca  Ca12      1.0  0.96771  0.09874  0.85537  1.0000
  Ca  Ca13      1.0  0.03286  0.34874  0.35537  1.0000
  Ca  Ca14      1.0  0.03292  0.84870  0.35531  1.0000
  Ca  Ca15      1.0  0.53291  0.34869  0.35533  1.0000
  Ca  Ca16      1.0  0.53290  0.84879  0.35531  1.0000
  Si  Si1       1.0  0.29267  0.10400  0.09354  1.0000
  Si  Si2       1.0  0.29262  0.60405  0.09354  1.0000
  Si  Si3       1.0  0.79265  0.10399  0.09346  1.0000
  Si  Si4       1.0  0.79262  0.60409  0.09357  1.0000
  Si  Si5       1.0  0.20793  0.35409  0.59355  1.0000
  Si  Si6       1.0  0.20802  0.85403  0.59345  1.0000
  Si  Si7       1.0  0.70798  0.35404  0.59349  1.0000
  Si  Si8       1.0  0.70797  0.85406  0.59354  1.0000
  Si  Si9       1.0  0.12836  0.23933  0.04963  1.0000
  Si  Si10      1.0  0.12829  0.73936  0.04963  1.0000
  Si  Si11      1.0  0.62833  0.23930  0.04960  1.0000
  Si  Si12      1.0  0.62830  0.73930  0.04967  1.0000
  Si  Si13      1.0  0.37230  0.48929  0.54959  1.0000
  Si  Si14      1.0  0.37233  0.98931  0.54962  1.0000
  Si  Si15      1.0  0.87233  0.48927  0.54965  1.0000
  Si  Si16      1.0  0.87237  0.98930  0.54970  1.0000
  Si  Si17      1.0  0.06886  0.84568  0.81659  1.0000
  Si  Si18      1.0  0.06883  0.34574  0.81669  1.0000
  Si  Si19      1.0  0.56883  0.84564  0.81664  1.0000
  Si  Si20      1.0  0.56881  0.34569  0.81655  1.0000
  Si  Si21      1.0  0.43182  0.59569  0.31662  1.0000
  Si  Si22      1.0  0.43180  0.09567  0.31663  1.0000
  Si  Si23      1.0  0.93178  0.59563  0.31667  1.0000
  Si  Si24      1.0  0.93179  0.09569  0.31666  1.0000
  O   O1        1.0  0.41280  0.56637  0.65791  1.0000
  O   O2        1.0  0.41281  0.06641  0.65792  1.0000
  O   O3        1.0  0.91291  0.56632  0.65794  1.0000
  O   O4        1.0  0.91292  0.06634  0.65801  1.0000
  O   O5        1.0  0.08789  0.31632  0.15805  1.0000
  O   O6        1.0  0.08771  0.81647  0.15784  1.0000
  O   O7        1.0  0.58789  0.31640  0.15794  1.0000
  O   O8        1.0  0.58765  0.81637  0.15787  1.0000
  O   O9        1.0  0.23312  0.21091  0.08867  1.0000
  O   O10       1.0  0.23301  0.71094  0.08889  1.0000
  O   O11       1.0  0.73310  0.21091  0.08868  1.0000
  O   O12       1.0  0.73304  0.71102  0.08898  1.0000
  O   O13       1.0  0.26753  0.46096  0.58869  1.0000
  O   O14       1.0  0.26756  0.96097  0.58874  1.0000
  O   O15       1.0  0.76758  0.46095  0.58887  1.0000
  O   O16       1.0  0.76763  0.96094  0.58894  1.0000
  O   O17       1.0  0.22939  0.51349  0.13691  1.0000
  O   O18       1.0  0.22936  0.01355  0.13706  1.0000
  O   O19       1.0  0.72934  0.51357  0.13692  1.0000
  O   O20       1.0  0.72935  0.01349  0.13682  1.0000
  O   O21       1.0  0.27128  0.76355  0.63696  1.0000
  O   O22       1.0  0.27122  0.26363  0.63705  1.0000
  O   O23       1.0  0.77125  0.76349  0.63679  1.0000
  O   O24       1.0  0.77126  0.26359  0.63700  1.0000
  O   O25       1.0  0.01744  0.93989  0.88863  1.0000
  O   O26       1.0  0.01740  0.43992  0.88876  1.0000
  O   O27       1.0  0.51740  0.93982  0.88871  1.0000
  O   O28       1.0  0.51738  0.43990  0.88862  1.0000
  O   O29       1.0  0.48327  0.68987  0.38867  1.0000
  O   O30       1.0  0.48333  0.18979  0.38871  1.0000
  O   O31       1.0  0.98327  0.68980  0.38871  1.0000
  O   O32       1.0  0.98324  0.18985  0.38875  1.0000
  O   O33       1.0  0.42707  0.38774  0.50963  1.0000
  O   O34       1.0  0.42712  0.88777  0.50973  1.0000
  O   O35       1.0  0.92711  0.38772  0.50977  1.0000
  O   O36       1.0  0.92713  0.88776  0.50966  1.0000
  O   O37       1.0  0.07357  0.13782  0.00957  1.0000
  O   O38       1.0  0.07355  0.63778  0.00976  1.0000
  O   O39       1.0  0.57349  0.13778  0.00973  1.0000
  O   O40       1.0  0.57352  0.63773  0.00972  1.0000
  O   O41       1.0  0.33959  0.58266  0.95824  1.0000
  O   O42       1.0  0.33964  0.08251  0.95822  1.0000
  O   O43       1.0  0.83961  0.58278  0.95825  1.0000
  O   O44       1.0  0.83958  0.08259  0.95813  1.0000
  O   O45       1.0  0.16100  0.33269  0.45818  1.0000
  O   O46       1.0  0.16109  0.83266  0.45808  1.0000
  O   O47       1.0  0.66104  0.33262  0.45815  1.0000
  O   O48       1.0  0.66096  0.83283  0.45823  1.0000
  O   O49       1.0  0.00322  0.75379  0.76764  1.0000
  O   O50       1.0  0.00324  0.25386  0.76767  1.0000
  O   O51       1.0  0.50321  0.75378  0.76758  1.0000
  O   O52       1.0  0.50324  0.25375  0.76756  1.0000
  O   O53       1.0  0.49744  0.50382  0.26764  1.0000
  O   O54       1.0  0.49734  0.00376  0.26757  1.0000
  O   O55       1.0  0.99738  0.50376  0.26760  1.0000
  O   O56       1.0  0.99743  0.00385  0.26765  1.0000
  O   O57       1.0  0.14264  0.80444  0.92107  1.0000
  O   O58       1.0  0.14260  0.30457  0.92119  1.0000
  O   O59       1.0  0.64261  0.80434  0.92106  1.0000
  O   O60       1.0  0.64260  0.30443  0.92102  1.0000
  O   O61       1.0  0.35804  0.55442  0.42105  1.0000
  O   O62       1.0  0.35805  0.05443  0.42108  1.0000
  O   O63       1.0  0.85800  0.55435  0.42111  1.0000
  O   O64       1.0  0.85801  0.05445  0.42116  1.0000
  O   O65       1.0  0.36718  0.13703  0.20519  1.0000
  O   O66       1.0  0.36714  0.63700  0.20519  1.0000
  O   O67       1.0  0.86717  0.13696  0.20515  1.0000
  O   O68       1.0  0.86715  0.63702  0.20524  1.0000
  O   O69       1.0  0.13341  0.38710  0.70519  1.0000
  O   O70       1.0  0.13345  0.88696  0.70505  1.0000
  O   O71       1.0  0.63334  0.38705  0.70498  1.0000
  O   O72       1.0  0.63347  0.88705  0.70521  1.0000
