data_image0
_chemical_formula_structural       Na3Nb39O99
_chemical_formula_sum              "Na3 Nb39 O99"
_cell_length_a       11.5244
_cell_length_b       11.5496
_cell_length_c       15.5614
_cell_angle_alpha    89.7614
_cell_angle_beta     91.5751
_cell_angle_gamma    99.6146

_space_group_name_H-M_alt    "P 1"
_space_group_IT_number       1

loop_
  _space_group_symop_operation_xyz
  'x, y, z'

loop_
  _atom_site_type_symbol
  _atom_site_label
  _atom_site_symmetry_multiplicity
  _atom_site_fract_x
  _atom_site_fract_y
  _atom_site_fract_z
  _atom_site_occupancy
  Na  Na1       1.0  0.00055  0.50098  0.49996  1.0000
  Na  Na2       1.0  0.00017  0.16680  0.50036  1.0000
  Na  Na3       1.0  0.00014  0.83385  0.50018  1.0000
  Nb  Nb1       1.0  0.00052  0.66745  0.00031  1.0000
  Nb  Nb2       1.0  0.00061  0.33412  0.00028  1.0000
  Nb  Nb3       1.0  0.00056  0.00077  0.00033  1.0000
  Nb  Nb4       1.0  0.86044  0.64394  0.77104  1.0000
  Nb  Nb5       1.0  0.86037  0.31060  0.77110  1.0000
  Nb  Nb6       1.0  0.86044  0.97732  0.77108  1.0000
  Nb  Nb7       1.0  0.14063  0.35674  0.22958  1.0000
  Nb  Nb8       1.0  0.14073  0.02344  0.22957  1.0000
  Nb  Nb9       1.0  0.14070  0.69011  0.22956  1.0000
  Nb  Nb10      1.0  0.55140  0.59232  0.86265  1.0000
  Nb  Nb11      1.0  0.55137  0.25889  0.86275  1.0000
  Nb  Nb12      1.0  0.55145  0.92562  0.86277  1.0000
  Nb  Nb13      1.0  0.44974  0.40860  0.13801  1.0000
  Nb  Nb14      1.0  0.44977  0.07534  0.13799  1.0000
  Nb  Nb15      1.0  0.44974  0.74196  0.13796  1.0000
  Nb  Nb16      1.0  0.68916  0.61532  0.09496  1.0000
  Nb  Nb17      1.0  0.68928  0.28202  0.09503  1.0000
  Nb  Nb18      1.0  0.68924  0.94865  0.09510  1.0000
  Nb  Nb19      1.0  0.31196  0.38558  0.90567  1.0000
  Nb  Nb20      1.0  0.31190  0.05223  0.90564  1.0000
  Nb  Nb21      1.0  0.31190  0.71894  0.90564  1.0000
  Nb  Nb22      1.0  0.72740  0.62147  0.53172  1.0000
  Nb  Nb23      1.0  0.72740  0.28817  0.53173  1.0000
  Nb  Nb24      1.0  0.72731  0.95478  0.53177  1.0000
  Nb  Nb25      1.0  0.27359  0.37942  0.46900  1.0000
  Nb  Nb26      1.0  0.27375  0.04614  0.46896  1.0000
  Nb  Nb27      1.0  0.27363  0.71284  0.46894  1.0000
  Nb  Nb28      1.0  0.41592  0.56950  0.62616  1.0000
  Nb  Nb29      1.0  0.41594  0.23622  0.62622  1.0000
  Nb  Nb30      1.0  0.41589  0.90284  0.62625  1.0000
  Nb  Nb31      1.0  0.58514  0.43145  0.37452  1.0000
  Nb  Nb32      1.0  0.58523  0.09810  0.37450  1.0000
  Nb  Nb33      1.0  0.58507  0.76475  0.37456  1.0000
  Nb  Nb34      1.0  0.82625  0.63836  0.32410  1.0000
  Nb  Nb35      1.0  0.82630  0.30507  0.32420  1.0000
  Nb  Nb36      1.0  0.82633  0.97166  0.32422  1.0000
  Nb  Nb37      1.0  0.17474  0.36261  0.67654  1.0000
  Nb  Nb38      1.0  0.17478  0.02933  0.67647  1.0000
  Nb  Nb39      1.0  0.17485  0.69596  0.67649  1.0000
  O   O1        1.0  0.83646  0.63985  0.04877  1.0000
  O   O2        1.0  0.83652  0.30656  0.04884  1.0000
  O   O3        1.0  0.83651  0.97287  0.04891  1.0000
  O   O4        1.0  0.16469  0.36091  0.95191  1.0000
  O   O5        1.0  0.16464  0.02792  0.95185  1.0000
  O   O6        1.0  0.16465  0.69463  0.95181  1.0000
  O   O7        1.0  0.00068  0.50049  0.00028  1.0000
  O   O8        1.0  0.00028  0.16705  0.00050  1.0000
  O   O9        1.0  0.00054  0.83376  0.00016  1.0000
  O   O10       1.0  0.36033  0.56037  0.90018  1.0000
  O   O11       1.0  0.36042  0.22701  0.90024  1.0000
  O   O12       1.0  0.36041  0.89371  0.90026  1.0000
  O   O13       1.0  0.64071  0.44059  0.10042  1.0000
  O   O14       1.0  0.64086  0.10727  0.10051  1.0000
  O   O15       1.0  0.64073  0.77390  0.10054  1.0000
  O   O16       1.0  0.49908  0.58351  0.13772  1.0000
  O   O17       1.0  0.49914  0.25019  0.13772  1.0000
  O   O18       1.0  0.49903  0.91684  0.13762  1.0000
  O   O19       1.0  0.50213  0.41743  0.86300  1.0000
  O   O20       1.0  0.50208  0.08404  0.86307  1.0000
  O   O21       1.0  0.50215  0.75082  0.86300  1.0000
  O   O22       1.0  0.69423  0.61583  0.80558  1.0000
  O   O23       1.0  0.69423  0.28256  0.80568  1.0000
  O   O24       1.0  0.69427  0.94917  0.80567  1.0000
  O   O25       1.0  0.30687  0.38478  0.19505  1.0000
  O   O26       1.0  0.30695  0.05178  0.19512  1.0000
  O   O27       1.0  0.30689  0.71843  0.19502  1.0000
  O   O28       1.0  0.14234  0.52409  0.24725  1.0000
  O   O29       1.0  0.14195  0.19067  0.24734  1.0000
  O   O30       1.0  0.14208  0.85739  0.24728  1.0000
  O   O31       1.0  0.85893  0.47682  0.75338  1.0000
  O   O32       1.0  0.85893  0.14356  0.75331  1.0000
  O   O33       1.0  0.85904  0.81023  0.75334  1.0000
  O   O34       1.0  0.61028  0.60223  0.97426  1.0000
  O   O35       1.0  0.61030  0.26878  0.97433  1.0000
  O   O36       1.0  0.61033  0.93552  0.97438  1.0000
  O   O37       1.0  0.39083  0.39881  0.02640  1.0000
  O   O38       1.0  0.39078  0.06550  0.02643  1.0000
  O   O39       1.0  0.39085  0.73198  0.02635  1.0000
  O   O40       1.0  0.93088  0.65537  0.88034  1.0000
  O   O41       1.0  0.93083  0.32202  0.88046  1.0000
  O   O42       1.0  0.93094  0.98893  0.88038  1.0000
  O   O43       1.0  0.07028  0.34542  0.12026  1.0000
  O   O44       1.0  0.07043  0.01200  0.12019  1.0000
  O   O45       1.0  0.07033  0.67878  0.12021  1.0000
  O   O46       1.0  0.74290  0.62432  0.21356  1.0000
  O   O47       1.0  0.74295  0.29106  0.21364  1.0000
  O   O48       1.0  0.74282  0.95776  0.21370  1.0000
  O   O49       1.0  0.25823  0.37658  0.78710  1.0000
  O   O50       1.0  0.25824  0.04323  0.78705  1.0000
  O   O51       1.0  0.25824  0.71001  0.78704  1.0000
  O   O52       1.0  0.46662  0.57828  0.73663  1.0000
  O   O53       1.0  0.46657  0.24476  0.73669  1.0000
  O   O54       1.0  0.46663  0.91155  0.73669  1.0000
  O   O55       1.0  0.53458  0.42280  0.26403  1.0000
  O   O56       1.0  0.53470  0.08935  0.26401  1.0000
  O   O57       1.0  0.53441  0.75617  0.26410  1.0000
  O   O58       1.0  0.80225  0.63421  0.63440  1.0000
  O   O59       1.0  0.80216  0.30087  0.63444  1.0000
  O   O60       1.0  0.80219  0.96753  0.63444  1.0000
  O   O61       1.0  0.19875  0.36661  0.36634  1.0000
  O   O62       1.0  0.19903  0.03338  0.36624  1.0000
  O   O63       1.0  0.19876  0.70012  0.36626  1.0000
  O   O64       1.0  0.97735  0.66325  0.29092  1.0000
  O   O65       1.0  0.97741  0.33022  0.29108  1.0000
  O   O66       1.0  0.97742  0.99662  0.29104  1.0000
  O   O67       1.0  0.02366  0.33761  0.70971  1.0000
  O   O68       1.0  0.02366  0.00434  0.70960  1.0000
  O   O69       1.0  0.02372  0.67079  0.70958  1.0000
  O   O70       1.0  0.22089  0.53704  0.66311  1.0000
  O   O71       1.0  0.22089  0.20375  0.66306  1.0000
  O   O72       1.0  0.22090  0.87045  0.66304  1.0000
  O   O73       1.0  0.78017  0.46394  0.33768  1.0000
  O   O74       1.0  0.78030  0.13060  0.33770  1.0000
  O   O75       1.0  0.78019  0.79722  0.33755  1.0000
  O   O76       1.0  0.63779  0.60684  0.38916  1.0000
  O   O77       1.0  0.63785  0.27347  0.38918  1.0000
  O   O78       1.0  0.63785  0.94014  0.38924  1.0000
  O   O79       1.0  0.36329  0.39418  0.61156  1.0000
  O   O80       1.0  0.36334  0.06087  0.61150  1.0000
  O   O81       1.0  0.36321  0.72745  0.61151  1.0000
  O   O82       1.0  0.55550  0.59277  0.56906  1.0000
  O   O83       1.0  0.55554  0.25944  0.56915  1.0000
  O   O84       1.0  0.55546  0.92595  0.56912  1.0000
  O   O85       1.0  0.44552  0.40830  0.43155  1.0000
  O   O86       1.0  0.44564  0.07491  0.43160  1.0000
  O   O87       1.0  0.44549  0.74147  0.43165  1.0000
  O   O88       1.0  0.30594  0.55154  0.49759  1.0000
  O   O89       1.0  0.30604  0.21821  0.49757  1.0000
  O   O90       1.0  0.30615  0.88492  0.49760  1.0000
  O   O91       1.0  0.69491  0.44940  0.50311  1.0000
  O   O92       1.0  0.69503  0.11605  0.50321  1.0000
  O   O93       1.0  0.69500  0.78271  0.50310  1.0000
  O   O94       1.0  0.86370  0.64417  0.45540  1.0000
  O   O95       1.0  0.86369  0.31081  0.45543  1.0000
  O   O96       1.0  0.86369  0.97737  0.45546  1.0000
  O   O97       1.0  0.13730  0.35677  0.54532  1.0000
  O   O98       1.0  0.13742  0.02357  0.54529  1.0000
  O   O99       1.0  0.13734  0.69026  0.54525  1.0000
