data_image0
_chemical_formula_structural       K9Ba18Bi18O63
_chemical_formula_sum              "K9 Ba18 Bi18 O63"
_cell_length_a       12.9282
_cell_length_b       12.9282
_cell_length_c       11.4681
_cell_angle_alpha    100.832
_cell_angle_beta     79.1716
_cell_angle_gamma    89.9999

_space_group_name_H-M_alt    "P 1"
_space_group_IT_number       1

loop_
  _space_group_symop_operation_xyz
  'x, y, z'

loop_
  _atom_site_type_symbol
  _atom_site_label
  _atom_site_symmetry_multiplicity
  _atom_site_fract_x
  _atom_site_fract_y
  _atom_site_fract_z
  _atom_site_occupancy
  K   K1        1.0  0.77156  0.22920  0.37357  1.0000
  K   K2        1.0  0.10472  0.22936  0.37356  1.0000
  K   K3        1.0  0.43824  0.22920  0.37359  1.0000
  K   K4        1.0  0.77144  0.56263  0.37352  1.0000
  K   K5        1.0  0.10472  0.56265  0.37349  1.0000
  K   K6        1.0  0.43824  0.56270  0.37355  1.0000
  K   K7        1.0  0.77142  0.89583  0.37353  1.0000
  K   K8        1.0  0.10478  0.89593  0.37347  1.0000
  K   K9        1.0  0.43801  0.89603  0.37345  1.0000
  Ba  Ba1       1.0  0.83214  0.16859  0.00931  1.0000
  Ba  Ba2       1.0  0.16548  0.16857  0.00928  1.0000
  Ba  Ba3       1.0  0.49881  0.16861  0.00931  1.0000
  Ba  Ba4       1.0  0.83214  0.50191  0.00924  1.0000
  Ba  Ba5       1.0  0.16548  0.50186  0.00924  1.0000
  Ba  Ba6       1.0  0.49878  0.50191  0.00930  1.0000
  Ba  Ba7       1.0  0.83211  0.83524  0.00923  1.0000
  Ba  Ba8       1.0  0.16548  0.83520  0.00920  1.0000
  Ba  Ba9       1.0  0.49878  0.83524  0.00924  1.0000
  Ba  Ba10      1.0  0.89691  0.10378  0.62052  1.0000
  Ba  Ba11      1.0  0.23019  0.10374  0.62050  1.0000
  Ba  Ba12      1.0  0.56356  0.10377  0.62053  1.0000
  Ba  Ba13      1.0  0.89688  0.43711  0.62057  1.0000
  Ba  Ba14      1.0  0.23034  0.43713  0.62051  1.0000
  Ba  Ba15      1.0  0.56370  0.43709  0.62060  1.0000
  Ba  Ba16      1.0  0.89693  0.77042  0.62047  1.0000
  Ba  Ba17      1.0  0.23022  0.77043  0.62046  1.0000
  Ba  Ba18      1.0  0.56357  0.77043  0.62050  1.0000
  Bi  Bi1       1.0  0.69939  0.30131  0.80574  1.0000
  Bi  Bi2       1.0  0.03275  0.30127  0.80561  1.0000
  Bi  Bi3       1.0  0.36609  0.30127  0.80564  1.0000
  Bi  Bi4       1.0  0.69938  0.63463  0.80570  1.0000
  Bi  Bi5       1.0  0.03274  0.63463  0.80562  1.0000
  Bi  Bi6       1.0  0.36607  0.63462  0.80564  1.0000
  Bi  Bi7       1.0  0.69938  0.96797  0.80565  1.0000
  Bi  Bi8       1.0  0.03270  0.96795  0.80565  1.0000
  Bi  Bi9       1.0  0.36606  0.96794  0.80560  1.0000
  Bi  Bi10      1.0  0.96601  0.03467  0.20602  1.0000
  Bi  Bi11      1.0  0.29936  0.03468  0.20597  1.0000
  Bi  Bi12      1.0  0.63268  0.03473  0.20602  1.0000
  Bi  Bi13      1.0  0.96607  0.36803  0.20599  1.0000
  Bi  Bi14      1.0  0.29936  0.36802  0.20607  1.0000
  Bi  Bi15      1.0  0.63275  0.36806  0.20603  1.0000
  Bi  Bi16      1.0  0.96602  0.70133  0.20592  1.0000
  Bi  Bi17      1.0  0.29934  0.70135  0.20593  1.0000
  Bi  Bi18      1.0  0.63270  0.70138  0.20595  1.0000
  O   O1        1.0  0.73115  0.26972  0.61516  1.0000
  O   O2        1.0  0.06435  0.26933  0.61498  1.0000
  O   O3        1.0  0.39802  0.26953  0.61504  1.0000
  O   O4        1.0  0.73107  0.60270  0.61510  1.0000
  O   O5        1.0  0.06447  0.60304  0.61502  1.0000
  O   O6        1.0  0.39791  0.60290  0.61504  1.0000
  O   O7        1.0  0.73105  0.93616  0.61505  1.0000
  O   O8        1.0  0.06445  0.93610  0.61502  1.0000
  O   O9        1.0  0.39791  0.93607  0.61498  1.0000
  O   O10       1.0  0.93474  0.06589  0.39331  1.0000
  O   O11       1.0  0.26819  0.06578  0.39323  1.0000
  O   O12       1.0  0.60138  0.06608  0.39328  1.0000
  O   O13       1.0  0.93488  0.39933  0.39327  1.0000
  O   O14       1.0  0.26807  0.39921  0.39334  1.0000
  O   O15       1.0  0.60170  0.39947  0.39328  1.0000
  O   O16       1.0  0.93470  0.73257  0.39320  1.0000
  O   O17       1.0  0.26805  0.73267  0.39321  1.0000
  O   O18       1.0  0.60158  0.73257  0.39321  1.0000
  O   O19       1.0  0.86564  0.30175  0.80815  1.0000
  O   O20       1.0  0.19908  0.30153  0.80773  1.0000
  O   O21       1.0  0.53234  0.30168  0.80817  1.0000
  O   O22       1.0  0.86568  0.63489  0.80789  1.0000
  O   O23       1.0  0.19904  0.63509  0.80786  1.0000
  O   O24       1.0  0.53230  0.63493  0.80812  1.0000
  O   O25       1.0  0.86565  0.96837  0.80791  1.0000
  O   O26       1.0  0.19903  0.96827  0.80786  1.0000
  O   O27       1.0  0.53230  0.96838  0.80810  1.0000
  O   O28       1.0  0.03229  0.13499  0.80797  1.0000
  O   O29       1.0  0.36568  0.13496  0.80780  1.0000
  O   O30       1.0  0.69904  0.13501  0.80792  1.0000
  O   O31       1.0  0.03252  0.46832  0.80770  1.0000
  O   O32       1.0  0.36561  0.46835  0.80795  1.0000
  O   O33       1.0  0.69898  0.46840  0.80826  1.0000
  O   O34       1.0  0.03220  0.80170  0.80812  1.0000
  O   O35       1.0  0.36577  0.80167  0.80798  1.0000
  O   O36       1.0  0.69904  0.80168  0.80795  1.0000
  O   O37       1.0  0.13662  0.03076  0.18262  1.0000
  O   O38       1.0  0.46995  0.03078  0.18253  1.0000
  O   O39       1.0  0.80322  0.03075  0.18262  1.0000
  O   O40       1.0  0.13659  0.36408  0.18263  1.0000
  O   O41       1.0  0.46994  0.36417  0.18275  1.0000
  O   O42       1.0  0.80335  0.36413  0.18256  1.0000
  O   O43       1.0  0.13658  0.69744  0.18254  1.0000
  O   O44       1.0  0.46991  0.69746  0.18263  1.0000
  O   O45       1.0  0.80325  0.69745  0.18249  1.0000
  O   O46       1.0  0.96992  0.19747  0.18265  1.0000
  O   O47       1.0  0.30327  0.19741  0.18260  1.0000
  O   O48       1.0  0.63661  0.19750  0.18269  1.0000
  O   O49       1.0  0.96996  0.53078  0.18257  1.0000
  O   O50       1.0  0.30323  0.53078  0.18260  1.0000
  O   O51       1.0  0.63659  0.53078  0.18253  1.0000
  O   O52       1.0  0.96995  0.86406  0.18249  1.0000
  O   O53       1.0  0.30326  0.86411  0.18248  1.0000
  O   O54       1.0  0.63656  0.86417  0.18264  1.0000
  O   O55       1.0  0.66688  0.33374  0.00078  1.0000
  O   O56       1.0  0.00039  0.33386  0.00073  1.0000
  O   O57       1.0  0.33353  0.33376  0.00066  1.0000
  O   O58       1.0  0.66692  0.66725  0.00072  1.0000
  O   O59       1.0  0.00024  0.66701  0.00061  1.0000
  O   O60       1.0  0.33352  0.66712  0.00061  1.0000
  O   O61       1.0  0.66696  0.00052  0.00068  1.0000
  O   O62       1.0  0.00023  0.00054  0.00069  1.0000
  O   O63       1.0  0.33346  0.00051  0.00068  1.0000
