data_image0
_chemical_formula_structural       Ca8Sn8Ge16O48
_chemical_formula_sum              "Ca8 Sn8 Ge16 O48"
_cell_length_a       9.83612
_cell_length_b       11.0459
_cell_length_c       10.7233
_cell_angle_alpha    77.0736
_cell_angle_beta     89.9995
_cell_angle_gamma    89.9986

_space_group_name_H-M_alt    "P 1"
_space_group_IT_number       1

loop_
  _space_group_symop_operation_xyz
  'x, y, z'

loop_
  _atom_site_type_symbol
  _atom_site_label
  _atom_site_symmetry_multiplicity
  _atom_site_fract_x
  _atom_site_fract_y
  _atom_site_fract_z
  _atom_site_occupancy
  Ca  Ca1       1.0  0.58487  0.12537  0.25048  1.0000
  Ca  Ca2       1.0  0.58488  0.62537  0.25045  1.0000
  Ca  Ca3       1.0  0.08494  0.12536  0.75046  1.0000
  Ca  Ca4       1.0  0.08493  0.62535  0.75046  1.0000
  Ca  Ca5       1.0  0.41615  0.37534  0.75040  1.0000
  Ca  Ca6       1.0  0.41615  0.87535  0.75040  1.0000
  Ca  Ca7       1.0  0.91621  0.37538  0.25047  1.0000
  Ca  Ca8       1.0  0.91622  0.87539  0.25044  1.0000
  Sn  Sn1       1.0  0.36317  0.37543  0.25049  1.0000
  Sn  Sn2       1.0  0.36317  0.87543  0.25049  1.0000
  Sn  Sn3       1.0  0.86317  0.37538  0.75050  1.0000
  Sn  Sn4       1.0  0.86320  0.87540  0.75051  1.0000
  Sn  Sn5       1.0  0.63790  0.12534  0.75056  1.0000
  Sn  Sn6       1.0  0.63790  0.62534  0.75056  1.0000
  Sn  Sn7       1.0  0.13797  0.12543  0.25043  1.0000
  Sn  Sn8       1.0  0.13792  0.62543  0.25043  1.0000
  Ge  Ge1       1.0  0.64415  0.38840  0.03735  1.0000
  Ge  Ge2       1.0  0.64414  0.88841  0.03735  1.0000
  Ge  Ge3       1.0  0.14413  0.36195  0.96340  1.0000
  Ge  Ge4       1.0  0.14412  0.86200  0.96339  1.0000
  Ge  Ge5       1.0  0.35677  0.11198  0.96340  1.0000
  Ge  Ge6       1.0  0.35678  0.61198  0.96340  1.0000
  Ge  Ge7       1.0  0.85681  0.13842  0.03735  1.0000
  Ge  Ge8       1.0  0.85681  0.63839  0.03736  1.0000
  Ge  Ge9       1.0  0.64420  0.36267  0.46356  1.0000
  Ge  Ge10      1.0  0.64419  0.86264  0.46357  1.0000
  Ge  Ge11      1.0  0.14416  0.38826  0.53734  1.0000
  Ge  Ge12      1.0  0.14418  0.88825  0.53734  1.0000
  Ge  Ge13      1.0  0.35683  0.13824  0.53736  1.0000
  Ge  Ge14      1.0  0.35681  0.63825  0.53736  1.0000
  Ge  Ge15      1.0  0.85685  0.11266  0.46354  1.0000
  Ge  Ge16      1.0  0.85689  0.61268  0.46353  1.0000
  O   O1        1.0  0.76990  0.48831  0.41112  1.0000
  O   O2        1.0  0.76992  0.98831  0.41113  1.0000
  O   O3        1.0  0.27015  0.26281  0.58978  1.0000
  O   O4        1.0  0.27016  0.76282  0.58977  1.0000
  O   O5        1.0  0.23094  0.01276  0.58982  1.0000
  O   O6        1.0  0.23095  0.51278  0.58983  1.0000
  O   O7        1.0  0.73124  0.23833  0.41111  1.0000
  O   O8        1.0  0.73120  0.73834  0.41111  1.0000
  O   O9        1.0  0.73084  0.01307  0.08958  1.0000
  O   O10       1.0  0.73081  0.51305  0.08959  1.0000
  O   O11       1.0  0.23055  0.23722  0.91114  1.0000
  O   O12       1.0  0.23054  0.73722  0.91113  1.0000
  O   O13       1.0  0.27042  0.48717  0.91119  1.0000
  O   O14       1.0  0.27045  0.98717  0.91118  1.0000
  O   O15       1.0  0.77019  0.26309  0.08959  1.0000
  O   O16       1.0  0.77021  0.76310  0.08960  1.0000
  O   O17       1.0  0.98092  0.18235  0.35636  1.0000
  O   O18       1.0  0.98094  0.68234  0.35635  1.0000
  O   O19       1.0  0.48072  0.06855  0.64473  1.0000
  O   O20       1.0  0.48073  0.56854  0.64473  1.0000
  O   O21       1.0  0.02037  0.31854  0.64478  1.0000
  O   O22       1.0  0.02039  0.81853  0.64478  1.0000
  O   O23       1.0  0.52022  0.43235  0.35631  1.0000
  O   O24       1.0  0.52023  0.93234  0.35633  1.0000
  O   O25       1.0  0.98046  0.06861  0.14492  1.0000
  O   O26       1.0  0.98048  0.56862  0.14492  1.0000
  O   O27       1.0  0.48048  0.18216  0.85613  1.0000
  O   O28       1.0  0.48051  0.68215  0.85613  1.0000
  O   O29       1.0  0.02044  0.43224  0.85617  1.0000
  O   O30       1.0  0.02044  0.93224  0.85615  1.0000
  O   O31       1.0  0.52056  0.31857  0.14495  1.0000
  O   O32       1.0  0.52056  0.81856  0.14496  1.0000
  O   O33       1.0  0.58320  0.43314  0.88444  1.0000
  O   O34       1.0  0.58319  0.93316  0.88441  1.0000
  O   O35       1.0  0.08342  0.31753  0.11643  1.0000
  O   O36       1.0  0.08344  0.81752  0.11643  1.0000
  O   O37       1.0  0.41773  0.06750  0.11635  1.0000
  O   O38       1.0  0.41771  0.56750  0.11636  1.0000
  O   O39       1.0  0.91792  0.18325  0.88448  1.0000
  O   O40       1.0  0.91789  0.68323  0.88448  1.0000
  O   O41       1.0  0.58364  0.31780  0.61662  1.0000
  O   O42       1.0  0.58363  0.81777  0.61661  1.0000
  O   O43       1.0  0.08336  0.43313  0.38443  1.0000
  O   O44       1.0  0.08335  0.93312  0.38443  1.0000
  O   O45       1.0  0.41772  0.18309  0.38446  1.0000
  O   O46       1.0  0.41773  0.68308  0.38447  1.0000
  O   O47       1.0  0.91758  0.06779  0.61656  1.0000
  O   O48       1.0  0.91758  0.56780  0.61656  1.0000
