data_image0
_chemical_formula_structural       Ca24Hf8Si16O72
_chemical_formula_sum              "Ca24 Hf8 Si16 O72"
_cell_length_a       10.1486
_cell_length_b       14.7074
_cell_length_c       10.4223
_cell_angle_alpha    88.7598
_cell_angle_beta     90.001
_cell_angle_gamma    89.9999

_space_group_name_H-M_alt    "P 1"
_space_group_IT_number       1

loop_
  _space_group_symop_operation_xyz
  'x, y, z'

loop_
  _atom_site_type_symbol
  _atom_site_label
  _atom_site_symmetry_multiplicity
  _atom_site_fract_x
  _atom_site_fract_y
  _atom_site_fract_z
  _atom_site_occupancy
  Ca  Ca1       1.0  0.92195  0.18267  0.11155  1.0000
  Ca  Ca2       1.0  0.92196  0.68266  0.11152  1.0000
  Ca  Ca3       1.0  0.42194  0.31800  0.38937  1.0000
  Ca  Ca4       1.0  0.42197  0.81801  0.38936  1.0000
  Ca  Ca5       1.0  0.07903  0.31801  0.88937  1.0000
  Ca  Ca6       1.0  0.07909  0.81801  0.88939  1.0000
  Ca  Ca7       1.0  0.57899  0.18266  0.61155  1.0000
  Ca  Ca8       1.0  0.57905  0.68269  0.61153  1.0000
  Ca  Ca9       1.0  0.33110  0.44132  0.08784  1.0000
  Ca  Ca10      1.0  0.33108  0.94132  0.08786  1.0000
  Ca  Ca11      1.0  0.83107  0.05931  0.41311  1.0000
  Ca  Ca12      1.0  0.83111  0.55932  0.41311  1.0000
  Ca  Ca13      1.0  0.66980  0.05932  0.91310  1.0000
  Ca  Ca14      1.0  0.66983  0.55930  0.91310  1.0000
  Ca  Ca15      1.0  0.16982  0.44132  0.58783  1.0000
  Ca  Ca16      1.0  0.16978  0.94132  0.58783  1.0000
  Ca  Ca17      1.0  0.30605  0.18661  0.10028  1.0000
  Ca  Ca18      1.0  0.30610  0.68662  0.10028  1.0000
  Ca  Ca19      1.0  0.80607  0.31402  0.40068  1.0000
  Ca  Ca20      1.0  0.80613  0.81402  0.40066  1.0000
  Ca  Ca21      1.0  0.69489  0.31402  0.90066  1.0000
  Ca  Ca22      1.0  0.69492  0.81400  0.90066  1.0000
  Ca  Ca23      1.0  0.19488  0.18661  0.60026  1.0000
  Ca  Ca24      1.0  0.19493  0.68663  0.60028  1.0000
  Hf  Hf1       1.0  0.56249  0.43997  0.61601  1.0000
  Hf  Hf2       1.0  0.56250  0.93997  0.61599  1.0000
  Hf  Hf3       1.0  0.06247  0.06068  0.88492  1.0000
  Hf  Hf4       1.0  0.06250  0.56066  0.88495  1.0000
  Hf  Hf5       1.0  0.43842  0.06065  0.38493  1.0000
  Hf  Hf6       1.0  0.43847  0.56067  0.38493  1.0000
  Hf  Hf7       1.0  0.93844  0.43998  0.11600  1.0000
  Hf  Hf8       1.0  0.93841  0.93997  0.11598  1.0000
  Si  Si1       1.0  0.13668  0.29994  0.30795  1.0000
  Si  Si2       1.0  0.13670  0.79992  0.30795  1.0000
  Si  Si3       1.0  0.63667  0.20070  0.19297  1.0000
  Si  Si4       1.0  0.63671  0.70068  0.19296  1.0000
  Si  Si5       1.0  0.86423  0.20072  0.69295  1.0000
  Si  Si6       1.0  0.86428  0.70068  0.69297  1.0000
  Si  Si7       1.0  0.36426  0.29992  0.80796  1.0000
  Si  Si8       1.0  0.36428  0.79992  0.80795  1.0000
  Si  Si9       1.0  0.12375  0.08404  0.31770  1.0000
  Si  Si10      1.0  0.12378  0.58405  0.31771  1.0000
  Si  Si11      1.0  0.62379  0.41658  0.18325  1.0000
  Si  Si12      1.0  0.62377  0.91656  0.18322  1.0000
  Si  Si13      1.0  0.87717  0.41656  0.68323  1.0000
  Si  Si14      1.0  0.87716  0.91656  0.68324  1.0000
  Si  Si15      1.0  0.37712  0.08403  0.81771  1.0000
  Si  Si16      1.0  0.37714  0.58403  0.81771  1.0000
  O   O1        1.0  0.39071  0.16968  0.48438  1.0000
  O   O2        1.0  0.39080  0.66971  0.48439  1.0000
  O   O3        1.0  0.89074  0.33097  0.01652  1.0000
  O   O4        1.0  0.89077  0.83096  0.01652  1.0000
  O   O5        1.0  0.61021  0.33096  0.51653  1.0000
  O   O6        1.0  0.61025  0.83099  0.51646  1.0000
  O   O7        1.0  0.11019  0.16969  0.98437  1.0000
  O   O8        1.0  0.11023  0.66968  0.98437  1.0000
  O   O9        1.0  0.11200  0.45417  0.01198  1.0000
  O   O10       1.0  0.11198  0.95420  0.01196  1.0000
  O   O11       1.0  0.61196  0.04647  0.48897  1.0000
  O   O12       1.0  0.61199  0.54645  0.48899  1.0000
  O   O13       1.0  0.88894  0.04647  0.98895  1.0000
  O   O14       1.0  0.88898  0.54645  0.98896  1.0000
  O   O15       1.0  0.38896  0.45420  0.51199  1.0000
  O   O16       1.0  0.38892  0.95418  0.51195  1.0000
  O   O17       1.0  0.16822  0.31089  0.45817  1.0000
  O   O18       1.0  0.16820  0.81088  0.45819  1.0000
  O   O19       1.0  0.66818  0.18975  0.04272  1.0000
  O   O20       1.0  0.66826  0.68972  0.04272  1.0000
  O   O21       1.0  0.83269  0.18974  0.54272  1.0000
  O   O22       1.0  0.83272  0.68975  0.54273  1.0000
  O   O23       1.0  0.33272  0.31087  0.95819  1.0000
  O   O24       1.0  0.33279  0.81090  0.95818  1.0000
  O   O25       1.0  0.00188  0.34875  0.26036  1.0000
  O   O26       1.0  0.00193  0.84879  0.26035  1.0000
  O   O27       1.0  0.50185  0.15189  0.24057  1.0000
  O   O28       1.0  0.50195  0.65180  0.24054  1.0000
  O   O29       1.0  0.88908  0.42844  0.53039  1.0000
  O   O30       1.0  0.88910  0.92843  0.53041  1.0000
  O   O31       1.0  0.99903  0.15185  0.74054  1.0000
  O   O32       1.0  0.99908  0.65184  0.74053  1.0000
  O   O33       1.0  0.23290  0.32249  0.72423  1.0000
  O   O34       1.0  0.23291  0.82253  0.72424  1.0000
  O   O35       1.0  0.73285  0.17812  0.77667  1.0000
  O   O36       1.0  0.73289  0.67813  0.77667  1.0000
  O   O37       1.0  0.76806  0.17811  0.27666  1.0000
  O   O38       1.0  0.76810  0.67815  0.27669  1.0000
  O   O39       1.0  0.26806  0.32249  0.22424  1.0000
  O   O40       1.0  0.26809  0.82249  0.22425  1.0000
  O   O41       1.0  0.76684  0.44796  0.23825  1.0000
  O   O42       1.0  0.76683  0.94787  0.23827  1.0000
  O   O43       1.0  0.26681  0.05269  0.26270  1.0000
  O   O44       1.0  0.26684  0.55271  0.26270  1.0000
  O   O45       1.0  0.23408  0.05271  0.76267  1.0000
  O   O46       1.0  0.23410  0.55266  0.76268  1.0000
  O   O47       1.0  0.73411  0.44794  0.73825  1.0000
  O   O48       1.0  0.73412  0.94792  0.73824  1.0000
  O   O49       1.0  0.39334  0.19215  0.77271  1.0000
  O   O50       1.0  0.39329  0.69213  0.77272  1.0000
  O   O51       1.0  0.89332  0.30846  0.72821  1.0000
  O   O52       1.0  0.89335  0.80845  0.72819  1.0000
  O   O53       1.0  0.60763  0.30848  0.22821  1.0000
  O   O54       1.0  0.60751  0.80844  0.22814  1.0000
  O   O55       1.0  0.10760  0.19216  0.27273  1.0000
  O   O56       1.0  0.10759  0.69216  0.27271  1.0000
  O   O57       1.0  0.00328  0.45826  0.75687  1.0000
  O   O58       1.0  0.00324  0.95827  0.75689  1.0000
  O   O59       1.0  0.50320  0.04230  0.74410  1.0000
  O   O60       1.0  0.50325  0.54233  0.74411  1.0000
  O   O61       1.0  0.99766  0.04236  0.24406  1.0000
  O   O62       1.0  0.99770  0.54234  0.24409  1.0000
  O   O63       1.0  0.49768  0.45825  0.25689  1.0000
  O   O64       1.0  0.49770  0.95830  0.25686  1.0000
  O   O65       1.0  0.61188  0.42844  0.03040  1.0000
  O   O66       1.0  0.61194  0.92844  0.03039  1.0000
  O   O67       1.0  0.11185  0.07222  0.47053  1.0000
  O   O68       1.0  0.11189  0.57223  0.47055  1.0000
  O   O69       1.0  0.38901  0.07220  0.97054  1.0000
  O   O70       1.0  0.38902  0.57218  0.97054  1.0000
  O   O71       1.0  0.49907  0.34872  0.76038  1.0000
  O   O72       1.0  0.49912  0.84868  0.76030  1.0000
