data_image0
_chemical_formula_structural       K12Sr6Nb30O90
_chemical_formula_sum              "K12 Sr6 Nb30 O90"
_cell_length_a       12.7011
_cell_length_b       12.7016
_cell_length_c       11.9805
_cell_angle_alpha    89.999
_cell_angle_beta     90.0014
_cell_angle_gamma    89.9993

_space_group_name_H-M_alt    "P 1"
_space_group_IT_number       1

loop_
  _space_group_symop_operation_xyz
  'x, y, z'

loop_
  _atom_site_type_symbol
  _atom_site_label
  _atom_site_symmetry_multiplicity
  _atom_site_fract_x
  _atom_site_fract_y
  _atom_site_fract_z
  _atom_site_occupancy
  K   K1        1.0  0.67076  0.17079  0.00728  1.0000
  K   K2        1.0  0.67057  0.17093  0.34053  1.0000
  K   K3        1.0  0.67089  0.17064  0.67388  1.0000
  K   K4        1.0  0.32993  0.83010  0.00730  1.0000
  K   K5        1.0  0.32990  0.83024  0.34059  1.0000
  K   K6        1.0  0.32996  0.83010  0.67391  1.0000
  K   K7        1.0  0.82993  0.67063  0.00729  1.0000
  K   K8        1.0  0.82994  0.67081  0.34057  1.0000
  K   K9        1.0  0.82998  0.67075  0.67384  1.0000
  K   K10       1.0  0.17071  0.32994  0.00725  1.0000
  K   K11       1.0  0.17074  0.32993  0.34058  1.0000
  K   K12       1.0  0.17086  0.33002  0.67390  1.0000
  Sr  Sr1       1.0  0.00038  0.00039  0.00621  1.0000
  Sr  Sr2       1.0  0.00033  0.00043  0.33955  1.0000
  Sr  Sr3       1.0  0.00036  0.00038  0.67285  1.0000
  Sr  Sr4       1.0  0.50036  0.50039  0.00616  1.0000
  Sr  Sr5       1.0  0.50033  0.50044  0.33952  1.0000
  Sr  Sr6       1.0  0.50036  0.50040  0.67287  1.0000
  Nb  Nb1       1.0  0.50022  0.00061  0.18156  1.0000
  Nb  Nb2       1.0  0.50031  0.00051  0.51489  1.0000
  Nb  Nb3       1.0  0.50049  0.00034  0.84827  1.0000
  Nb  Nb4       1.0  0.00042  0.50028  0.18153  1.0000
  Nb  Nb5       1.0  0.00043  0.50034  0.51486  1.0000
  Nb  Nb6       1.0  0.00035  0.50036  0.84821  1.0000
  Nb  Nb7       1.0  0.21308  0.07683  0.17447  1.0000
  Nb  Nb8       1.0  0.21313  0.07682  0.50779  1.0000
  Nb  Nb9       1.0  0.21329  0.07672  0.84114  1.0000
  Nb  Nb10      1.0  0.78738  0.92397  0.17448  1.0000
  Nb  Nb11      1.0  0.78748  0.92398  0.50774  1.0000
  Nb  Nb12      1.0  0.78756  0.92390  0.84115  1.0000
  Nb  Nb13      1.0  0.92377  0.21329  0.17446  1.0000
  Nb  Nb14      1.0  0.92388  0.21328  0.50776  1.0000
  Nb  Nb15      1.0  0.92404  0.21318  0.84113  1.0000
  Nb  Nb16      1.0  0.71312  0.42415  0.17447  1.0000
  Nb  Nb17      1.0  0.71319  0.42407  0.50780  1.0000
  Nb  Nb18      1.0  0.71324  0.42389  0.84114  1.0000
  Nb  Nb19      1.0  0.07660  0.78758  0.17445  1.0000
  Nb  Nb20      1.0  0.07669  0.78758  0.50777  1.0000
  Nb  Nb21      1.0  0.07682  0.78749  0.84111  1.0000
  Nb  Nb22      1.0  0.28743  0.57697  0.17444  1.0000
  Nb  Nb23      1.0  0.28748  0.57692  0.50778  1.0000
  Nb  Nb24      1.0  0.28753  0.57676  0.84111  1.0000
  Nb  Nb25      1.0  0.42385  0.28768  0.17443  1.0000
  Nb  Nb26      1.0  0.42392  0.28756  0.50780  1.0000
  Nb  Nb27      1.0  0.42394  0.28747  0.84110  1.0000
  Nb  Nb28      1.0  0.57667  0.71337  0.17442  1.0000
  Nb  Nb29      1.0  0.57674  0.71336  0.50773  1.0000
  Nb  Nb30      1.0  0.57679  0.71315  0.84109  1.0000
  O   O1        1.0  0.19878  0.07632  0.00180  1.0000
  O   O2        1.0  0.19881  0.07628  0.33516  1.0000
  O   O3        1.0  0.19872  0.07635  0.66849  1.0000
  O   O4        1.0  0.80214  0.92442  0.00186  1.0000
  O   O5        1.0  0.80218  0.92436  0.33515  1.0000
  O   O6        1.0  0.80207  0.92443  0.66843  1.0000
  O   O7        1.0  0.92447  0.19867  0.00183  1.0000
  O   O8        1.0  0.92447  0.19872  0.33514  1.0000
  O   O9        1.0  0.92451  0.19874  0.66843  1.0000
  O   O10       1.0  0.69880  0.42447  0.00180  1.0000
  O   O11       1.0  0.69871  0.42436  0.33516  1.0000
  O   O12       1.0  0.69876  0.42443  0.66845  1.0000
  O   O13       1.0  0.07639  0.80206  0.00182  1.0000
  O   O14       1.0  0.07639  0.80203  0.33516  1.0000
  O   O15       1.0  0.07640  0.80204  0.66847  1.0000
  O   O16       1.0  0.30215  0.57633  0.00180  1.0000
  O   O17       1.0  0.30209  0.57632  0.33512  1.0000
  O   O18       1.0  0.30210  0.57634  0.66844  1.0000
  O   O19       1.0  0.42443  0.30210  0.00180  1.0000
  O   O20       1.0  0.42450  0.30200  0.33516  1.0000
  O   O21       1.0  0.42447  0.30203  0.66849  1.0000
  O   O22       1.0  0.57638  0.69869  0.00181  1.0000
  O   O23       1.0  0.57641  0.69865  0.33511  1.0000
  O   O24       1.0  0.57637  0.69874  0.66843  1.0000
  O   O25       1.0  0.00199  0.34400  0.16726  1.0000
  O   O26       1.0  0.00200  0.34400  0.50059  1.0000
  O   O27       1.0  0.00192  0.34404  0.83397  1.0000
  O   O28       1.0  0.99895  0.65664  0.16727  1.0000
  O   O29       1.0  0.99893  0.65667  0.50059  1.0000
  O   O30       1.0  0.99886  0.65672  0.83392  1.0000
  O   O31       1.0  0.65674  0.00192  0.16734  1.0000
  O   O32       1.0  0.65670  0.00188  0.50056  1.0000
  O   O33       1.0  0.65678  0.00192  0.83395  1.0000
  O   O34       1.0  0.50193  0.15674  0.16723  1.0000
  O   O35       1.0  0.50195  0.15667  0.50061  1.0000
  O   O36       1.0  0.50195  0.15672  0.83396  1.0000
  O   O37       1.0  0.34409  0.99887  0.16720  1.0000
  O   O38       1.0  0.34407  0.99886  0.50062  1.0000
  O   O39       1.0  0.34417  0.99892  0.83391  1.0000
  O   O40       1.0  0.49889  0.84410  0.16730  1.0000
  O   O41       1.0  0.49891  0.84407  0.50053  1.0000
  O   O42       1.0  0.49890  0.84406  0.83395  1.0000
  O   O43       1.0  0.15680  0.49878  0.16716  1.0000
  O   O44       1.0  0.15675  0.49882  0.50063  1.0000
  O   O45       1.0  0.15672  0.49889  0.83393  1.0000
  O   O46       1.0  0.84416  0.50182  0.16731  1.0000
  O   O47       1.0  0.84415  0.50184  0.50054  1.0000
  O   O48       1.0  0.84412  0.50189  0.83388  1.0000
  O   O49       1.0  0.50039  0.00044  0.33704  1.0000
  O   O50       1.0  0.50047  0.00036  0.67038  1.0000
  O   O51       1.0  0.50050  0.00037  0.00371  1.0000
  O   O52       1.0  0.00053  0.50034  0.33701  1.0000
  O   O53       1.0  0.00040  0.50037  0.67035  1.0000
  O   O54       1.0  0.00038  0.50040  0.00368  1.0000
  O   O55       1.0  0.21588  0.71582  0.16829  1.0000
  O   O56       1.0  0.21590  0.71583  0.50164  1.0000
  O   O57       1.0  0.21589  0.71584  0.83499  1.0000
  O   O58       1.0  0.78498  0.28489  0.16829  1.0000
  O   O59       1.0  0.78499  0.28493  0.50164  1.0000
  O   O60       1.0  0.78493  0.28492  0.83500  1.0000
  O   O61       1.0  0.28495  0.21585  0.16830  1.0000
  O   O62       1.0  0.28497  0.21583  0.50164  1.0000
  O   O63       1.0  0.28495  0.21585  0.83497  1.0000
  O   O64       1.0  0.71585  0.78494  0.16830  1.0000
  O   O65       1.0  0.71588  0.78497  0.50163  1.0000
  O   O66       1.0  0.71589  0.78493  0.83499  1.0000
  O   O67       1.0  0.06532  0.13711  0.16725  1.0000
  O   O68       1.0  0.06529  0.13709  0.50052  1.0000
  O   O69       1.0  0.06525  0.13709  0.83396  1.0000
  O   O70       1.0  0.93564  0.86360  0.16726  1.0000
  O   O71       1.0  0.93562  0.86364  0.50066  1.0000
  O   O72       1.0  0.93563  0.86372  0.83391  1.0000
  O   O73       1.0  0.86377  0.06517  0.16728  1.0000
  O   O74       1.0  0.86370  0.06519  0.50062  1.0000
  O   O75       1.0  0.86367  0.06524  0.83390  1.0000
  O   O76       1.0  0.56531  0.36356  0.16720  1.0000
  O   O77       1.0  0.56527  0.36359  0.50062  1.0000
  O   O78       1.0  0.56523  0.36370  0.83395  1.0000
  O   O79       1.0  0.13722  0.93552  0.16724  1.0000
  O   O80       1.0  0.13721  0.93552  0.50059  1.0000
  O   O81       1.0  0.13722  0.93554  0.83389  1.0000
  O   O82       1.0  0.43562  0.63707  0.16724  1.0000
  O   O83       1.0  0.43561  0.63707  0.50055  1.0000
  O   O84       1.0  0.43561  0.63709  0.83388  1.0000
  O   O85       1.0  0.36376  0.43555  0.16730  1.0000
  O   O86       1.0  0.36373  0.43553  0.50056  1.0000
  O   O87       1.0  0.36368  0.43555  0.83386  1.0000
  O   O88       1.0  0.63720  0.56519  0.16726  1.0000
  O   O89       1.0  0.63717  0.56518  0.50059  1.0000
  O   O90       1.0  0.63721  0.56524  0.83390  1.0000
