data_image0
_chemical_formula_structural       Na16Y16Ge16O64
_chemical_formula_sum              "Na16 Y16 Ge16 O64"
_cell_length_a       10.5194
_cell_length_b       12.8576
_cell_length_c       11.4017
_cell_angle_alpha    89.9938
_cell_angle_beta     90.0025
_cell_angle_gamma    89.9979

_space_group_name_H-M_alt    "P 1"
_space_group_IT_number       1

loop_
  _space_group_symop_operation_xyz
  'x, y, z'

loop_
  _atom_site_type_symbol
  _atom_site_label
  _atom_site_symmetry_multiplicity
  _atom_site_fract_x
  _atom_site_fract_y
  _atom_site_fract_z
  _atom_site_occupancy
  Na  Na1       1.0  0.00053  0.00027  0.00045  1.0000
  Na  Na2       1.0  0.00054  0.50028  0.00045  1.0000
  Na  Na3       1.0  0.50053  0.00027  0.00045  1.0000
  Na  Na4       1.0  0.50057  0.50027  0.00048  1.0000
  Na  Na5       1.0  0.00069  0.25010  0.00076  1.0000
  Na  Na6       1.0  0.00068  0.75012  0.00077  1.0000
  Na  Na7       1.0  0.50066  0.25010  0.00076  1.0000
  Na  Na8       1.0  0.50064  0.75013  0.00071  1.0000
  Na  Na9       1.0  0.25032  0.00020  0.50022  1.0000
  Na  Na10      1.0  0.25031  0.50019  0.50021  1.0000
  Na  Na11      1.0  0.75033  0.00018  0.50019  1.0000
  Na  Na12      1.0  0.75033  0.50017  0.50019  1.0000
  Na  Na13      1.0  0.25028  0.25023  0.50041  1.0000
  Na  Na14      1.0  0.25032  0.75026  0.50035  1.0000
  Na  Na15      1.0  0.75027  0.25022  0.50045  1.0000
  Na  Na16      1.0  0.75030  0.75020  0.50040  1.0000
  Y   Y1        1.0  0.00179  0.37543  0.27742  1.0000
  Y   Y2        1.0  0.00179  0.87542  0.27745  1.0000
  Y   Y3        1.0  0.50181  0.37541  0.27742  1.0000
  Y   Y4        1.0  0.50177  0.87541  0.27744  1.0000
  Y   Y5        1.0  0.49917  0.12540  0.72347  1.0000
  Y   Y6        1.0  0.49919  0.62542  0.72342  1.0000
  Y   Y7        1.0  0.99919  0.12541  0.72346  1.0000
  Y   Y8        1.0  0.99918  0.62543  0.72345  1.0000
  Y   Y9        1.0  0.24919  0.37538  0.77744  1.0000
  Y   Y10       1.0  0.24916  0.87536  0.77742  1.0000
  Y   Y11       1.0  0.74919  0.37541  0.77745  1.0000
  Y   Y12       1.0  0.74921  0.87541  0.77743  1.0000
  Y   Y13       1.0  0.25178  0.12544  0.22346  1.0000
  Y   Y14       1.0  0.25176  0.62543  0.22342  1.0000
  Y   Y15       1.0  0.75177  0.12543  0.22345  1.0000
  Y   Y16       1.0  0.75177  0.62545  0.22344  1.0000
  Ge  Ge1       1.0  0.47247  0.12540  0.40480  1.0000
  Ge  Ge2       1.0  0.47244  0.62537  0.40477  1.0000
  Ge  Ge3       1.0  0.97244  0.12545  0.40479  1.0000
  Ge  Ge4       1.0  0.97246  0.62544  0.40478  1.0000
  Ge  Ge5       1.0  0.27850  0.12539  0.90482  1.0000
  Ge  Ge6       1.0  0.27850  0.62542  0.90479  1.0000
  Ge  Ge7       1.0  0.77851  0.12545  0.90482  1.0000
  Ge  Ge8       1.0  0.77851  0.62546  0.90478  1.0000
  Ge  Ge9       1.0  0.02841  0.37550  0.59609  1.0000
  Ge  Ge10      1.0  0.02841  0.87548  0.59605  1.0000
  Ge  Ge11      1.0  0.52842  0.37544  0.59608  1.0000
  Ge  Ge12      1.0  0.52841  0.87548  0.59607  1.0000
  Ge  Ge13      1.0  0.22260  0.37550  0.09609  1.0000
  Ge  Ge14      1.0  0.22256  0.87550  0.09610  1.0000
  Ge  Ge15      1.0  0.72259  0.37549  0.09609  1.0000
  Ge  Ge16      1.0  0.72257  0.87550  0.09608  1.0000
  O   O1        1.0  0.39571  0.22974  0.32802  1.0000
  O   O2        1.0  0.39568  0.72974  0.32799  1.0000
  O   O3        1.0  0.89566  0.22977  0.32802  1.0000
  O   O4        1.0  0.89567  0.72976  0.32802  1.0000
  O   O5        1.0  0.14583  0.27117  0.17292  1.0000
  O   O6        1.0  0.14578  0.77117  0.17296  1.0000
  O   O7        1.0  0.64580  0.27117  0.17296  1.0000
  O   O8        1.0  0.64581  0.77117  0.17294  1.0000
  O   O9        1.0  0.10523  0.47975  0.67290  1.0000
  O   O10       1.0  0.10522  0.97972  0.67287  1.0000
  O   O11       1.0  0.60524  0.47972  0.67287  1.0000
  O   O12       1.0  0.60526  0.97974  0.67285  1.0000
  O   O13       1.0  0.35532  0.02106  0.82805  1.0000
  O   O14       1.0  0.35528  0.52107  0.82797  1.0000
  O   O15       1.0  0.85527  0.02112  0.82801  1.0000
  O   O16       1.0  0.85527  0.52113  0.82800  1.0000
  O   O17       1.0  0.10518  0.27113  0.67286  1.0000
  O   O18       1.0  0.10521  0.77113  0.67285  1.0000
  O   O19       1.0  0.60522  0.27113  0.67290  1.0000
  O   O20       1.0  0.60522  0.77114  0.67286  1.0000
  O   O21       1.0  0.35528  0.22969  0.82803  1.0000
  O   O22       1.0  0.35529  0.72969  0.82803  1.0000
  O   O23       1.0  0.85528  0.22975  0.82807  1.0000
  O   O24       1.0  0.85530  0.72975  0.82799  1.0000
  O   O25       1.0  0.39570  0.02113  0.32798  1.0000
  O   O26       1.0  0.39569  0.52111  0.32795  1.0000
  O   O27       1.0  0.89568  0.02115  0.32796  1.0000
  O   O28       1.0  0.89571  0.52114  0.32790  1.0000
  O   O29       1.0  0.14577  0.47976  0.17291  1.0000
  O   O30       1.0  0.14574  0.97977  0.17291  1.0000
  O   O31       1.0  0.64578  0.47973  0.17291  1.0000
  O   O32       1.0  0.64575  0.97975  0.17288  1.0000
  O   O33       1.0  0.08968  0.37539  0.45353  1.0000
  O   O34       1.0  0.08972  0.87540  0.45350  1.0000
  O   O35       1.0  0.58970  0.37536  0.45351  1.0000
  O   O36       1.0  0.58972  0.87536  0.45354  1.0000
  O   O37       1.0  0.33977  0.12531  0.04741  1.0000
  O   O38       1.0  0.33979  0.62532  0.04737  1.0000
  O   O39       1.0  0.83977  0.12535  0.04741  1.0000
  O   O40       1.0  0.83976  0.62538  0.04737  1.0000
  O   O41       1.0  0.41117  0.12532  0.54734  1.0000
  O   O42       1.0  0.41116  0.62530  0.54733  1.0000
  O   O43       1.0  0.91116  0.12534  0.54734  1.0000
  O   O44       1.0  0.91117  0.62530  0.54734  1.0000
  O   O45       1.0  0.16127  0.37536  0.95356  1.0000
  O   O46       1.0  0.16127  0.87537  0.95354  1.0000
  O   O47       1.0  0.66129  0.37534  0.95356  1.0000
  O   O48       1.0  0.66125  0.87534  0.95354  1.0000
  O   O49       1.0  0.36424  0.37531  0.60901  1.0000
  O   O50       1.0  0.36420  0.87536  0.60902  1.0000
  O   O51       1.0  0.86420  0.37536  0.60900  1.0000
  O   O52       1.0  0.86421  0.87535  0.60899  1.0000
  O   O53       1.0  0.11431  0.12533  0.89189  1.0000
  O   O54       1.0  0.11432  0.62536  0.89185  1.0000
  O   O55       1.0  0.61431  0.12537  0.89186  1.0000
  O   O56       1.0  0.61428  0.62537  0.89188  1.0000
  O   O57       1.0  0.13664  0.12540  0.39183  1.0000
  O   O58       1.0  0.13665  0.62539  0.39177  1.0000
  O   O59       1.0  0.63667  0.12537  0.39182  1.0000
  O   O60       1.0  0.63666  0.62535  0.39181  1.0000
  O   O61       1.0  0.38678  0.37535  0.10906  1.0000
  O   O62       1.0  0.38675  0.87536  0.10904  1.0000
  O   O63       1.0  0.88681  0.37537  0.10905  1.0000
  O   O64       1.0  0.88676  0.87537  0.10907  1.0000
