data_image0
_chemical_formula_structural       Na4Nb16Bi20O72
_chemical_formula_sum              "Na4 Nb16 Bi20 O72"
_cell_length_a       12.8178
_cell_length_b       10.9843
_cell_length_c       11.0941
_cell_angle_alpha    89.5455
_cell_angle_beta     90.0977
_cell_angle_gamma    102.375

_space_group_name_H-M_alt    "P 1"
_space_group_IT_number       1

loop_
  _space_group_symop_operation_xyz
  'x, y, z'

loop_
  _atom_site_type_symbol
  _atom_site_label
  _atom_site_symmetry_multiplicity
  _atom_site_fract_x
  _atom_site_fract_y
  _atom_site_fract_z
  _atom_site_occupancy
  Na  Na1       1.0  0.00041  0.36995  0.25711  1.0000
  Na  Na2       1.0  0.00037  0.37004  0.75718  1.0000
  Na  Na3       1.0  0.00045  0.86990  0.25710  1.0000
  Na  Na4       1.0  0.00038  0.86999  0.75710  1.0000
  Nb  Nb1       1.0  0.16695  0.41485  0.02237  1.0000
  Nb  Nb2       1.0  0.16695  0.41485  0.52237  1.0000
  Nb  Nb3       1.0  0.16694  0.91485  0.02237  1.0000
  Nb  Nb4       1.0  0.16696  0.91484  0.52236  1.0000
  Nb  Nb5       1.0  0.83404  0.33160  0.02241  1.0000
  Nb  Nb6       1.0  0.83406  0.33159  0.52239  1.0000
  Nb  Nb7       1.0  0.83404  0.83158  0.02239  1.0000
  Nb  Nb8       1.0  0.83405  0.83159  0.52240  1.0000
  Nb  Nb9       1.0  0.83226  0.07889  0.27021  1.0000
  Nb  Nb10      1.0  0.83225  0.07890  0.77021  1.0000
  Nb  Nb11      1.0  0.83225  0.57888  0.27021  1.0000
  Nb  Nb12      1.0  0.83224  0.57888  0.77021  1.0000
  Nb  Nb13      1.0  0.16870  0.16305  0.27020  1.0000
  Nb  Nb14      1.0  0.16871  0.16306  0.77020  1.0000
  Nb  Nb15      1.0  0.16870  0.66303  0.27019  1.0000
  Nb  Nb16      1.0  0.16869  0.66303  0.77019  1.0000
  Bi  Bi1       1.0  0.60173  0.04061  0.48715  1.0000
  Bi  Bi2       1.0  0.60170  0.04060  0.98712  1.0000
  Bi  Bi3       1.0  0.60175  0.54063  0.48715  1.0000
  Bi  Bi4       1.0  0.60173  0.54061  0.98717  1.0000
  Bi  Bi5       1.0  0.39927  0.24000  0.48713  1.0000
  Bi  Bi6       1.0  0.39925  0.24002  0.98713  1.0000
  Bi  Bi7       1.0  0.39926  0.73998  0.48712  1.0000
  Bi  Bi8       1.0  0.39923  0.74000  0.98712  1.0000
  Bi  Bi9       1.0  0.40068  0.46301  0.23785  1.0000
  Bi  Bi10      1.0  0.40070  0.46304  0.73786  1.0000
  Bi  Bi11      1.0  0.40066  0.96302  0.23783  1.0000
  Bi  Bi12      1.0  0.40065  0.96299  0.73780  1.0000
  Bi  Bi13      1.0  0.60036  0.26293  0.23777  1.0000
  Bi  Bi14      1.0  0.60035  0.26290  0.73780  1.0000
  Bi  Bi15      1.0  0.60033  0.76294  0.23780  1.0000
  Bi  Bi16      1.0  0.60033  0.76294  0.73781  1.0000
  Bi  Bi17      1.0  0.00049  0.11830  0.49814  1.0000
  Bi  Bi18      1.0  0.00049  0.11830  0.99813  1.0000
  Bi  Bi19      1.0  0.00050  0.61828  0.49814  1.0000
  Bi  Bi20      1.0  0.00050  0.61829  0.99813  1.0000
  O   O1        1.0  0.87455  0.23891  0.39256  1.0000
  O   O2        1.0  0.87454  0.23891  0.89257  1.0000
  O   O3        1.0  0.87454  0.73891  0.39257  1.0000
  O   O4        1.0  0.87452  0.73889  0.89257  1.0000
  O   O5        1.0  0.12636  0.30193  0.39252  1.0000
  O   O6        1.0  0.12638  0.30195  0.89252  1.0000
  O   O7        1.0  0.12637  0.80191  0.39253  1.0000
  O   O8        1.0  0.12637  0.80195  0.89252  1.0000
  O   O9        1.0  0.13070  0.26330  0.14023  1.0000
  O   O10       1.0  0.13071  0.26331  0.64023  1.0000
  O   O11       1.0  0.13071  0.76332  0.14025  1.0000
  O   O12       1.0  0.13070  0.76330  0.64021  1.0000
  O   O13       1.0  0.87028  0.19815  0.14023  1.0000
  O   O14       1.0  0.87028  0.19816  0.64024  1.0000
  O   O15       1.0  0.87026  0.69817  0.14025  1.0000
  O   O16       1.0  0.87027  0.69814  0.64022  1.0000
  O   O17       1.0  0.31462  0.41711  0.02940  1.0000
  O   O18       1.0  0.31461  0.41712  0.52936  1.0000
  O   O19       1.0  0.31460  0.91709  0.02940  1.0000
  O   O20       1.0  0.31462  0.91713  0.52940  1.0000
  O   O21       1.0  0.68636  0.26005  0.02948  1.0000
  O   O22       1.0  0.68637  0.26006  0.52950  1.0000
  O   O23       1.0  0.68634  0.76005  0.02942  1.0000
  O   O24       1.0  0.68636  0.76004  0.52946  1.0000
  O   O25       1.0  0.68701  0.08600  0.28893  1.0000
  O   O26       1.0  0.68699  0.08597  0.78889  1.0000
  O   O27       1.0  0.68699  0.58598  0.28893  1.0000
  O   O28       1.0  0.68700  0.58600  0.78891  1.0000
  O   O29       1.0  0.31397  0.24278  0.28896  1.0000
  O   O30       1.0  0.31398  0.24280  0.78901  1.0000
  O   O31       1.0  0.31396  0.74277  0.28898  1.0000
  O   O32       1.0  0.31394  0.74279  0.78901  1.0000
  O   O33       1.0  0.82932  0.48853  0.43788  1.0000
  O   O34       1.0  0.82933  0.48852  0.93786  1.0000
  O   O35       1.0  0.82935  0.98852  0.43785  1.0000
  O   O36       1.0  0.82935  0.98854  0.93787  1.0000
  O   O37       1.0  0.17164  0.07418  0.43786  1.0000
  O   O38       1.0  0.17163  0.07417  0.93786  1.0000
  O   O39       1.0  0.17161  0.57417  0.43787  1.0000
  O   O40       1.0  0.17163  0.57417  0.93788  1.0000
  O   O41       1.0  0.18294  0.02136  0.18296  1.0000
  O   O42       1.0  0.18297  0.02141  0.68294  1.0000
  O   O43       1.0  0.18292  0.52137  0.18299  1.0000
  O   O44       1.0  0.18292  0.52137  0.68296  1.0000
  O   O45       1.0  0.81807  0.43009  0.18301  1.0000
  O   O46       1.0  0.81809  0.43009  0.68300  1.0000
  O   O47       1.0  0.81807  0.93009  0.18298  1.0000
  O   O48       1.0  0.81810  0.93009  0.68299  1.0000
  O   O49       1.0  0.00048  0.41777  0.04639  1.0000
  O   O50       1.0  0.00047  0.41773  0.54639  1.0000
  O   O51       1.0  0.00047  0.91773  0.04639  1.0000
  O   O52       1.0  0.00049  0.91775  0.54639  1.0000
  O   O53       1.0  0.00049  0.08709  0.29852  1.0000
  O   O54       1.0  0.00050  0.08709  0.79850  1.0000
  O   O55       1.0  0.00049  0.58709  0.29850  1.0000
  O   O56       1.0  0.00049  0.58711  0.79851  1.0000
  O   O57       1.0  0.50309  0.38231  0.37577  1.0000
  O   O58       1.0  0.50309  0.38234  0.87579  1.0000
  O   O59       1.0  0.50310  0.88233  0.37577  1.0000
  O   O60       1.0  0.50307  0.88231  0.87576  1.0000
  O   O61       1.0  0.49791  0.13103  0.37577  1.0000
  O   O62       1.0  0.49790  0.13103  0.87578  1.0000
  O   O63       1.0  0.49792  0.63102  0.37578  1.0000
  O   O64       1.0  0.49791  0.63102  0.87578  1.0000
  O   O65       1.0  0.49996  0.11948  0.12653  1.0000
  O   O66       1.0  0.49996  0.11948  0.62655  1.0000
  O   O67       1.0  0.50000  0.61947  0.12657  1.0000
  O   O68       1.0  0.49999  0.61949  0.62657  1.0000
  O   O69       1.0  0.50102  0.36975  0.12654  1.0000
  O   O70       1.0  0.50103  0.36974  0.62657  1.0000
  O   O71       1.0  0.50103  0.86975  0.12655  1.0000
  O   O72       1.0  0.50102  0.86975  0.62656  1.0000
