data_image0
_chemical_formula_structural       Ba8Zr8Si24O72
_chemical_formula_sum              "Ba8 Zr8 Si24 O72"
_cell_length_a       13.5864
_cell_length_b       11.7669
_cell_length_c       10.0885
_cell_angle_alpha    90.0008
_cell_angle_beta     89.9996
_cell_angle_gamma    90.0017

_space_group_name_H-M_alt    "P 1"
_space_group_IT_number       1

loop_
  _space_group_symop_operation_xyz
  'x, y, z'

loop_
  _atom_site_type_symbol
  _atom_site_label
  _atom_site_symmetry_multiplicity
  _atom_site_fract_x
  _atom_site_fract_y
  _atom_site_fract_z
  _atom_site_occupancy
  Ba  Ba1       1.0  0.00029  0.00043  0.00035  1.0000
  Ba  Ba2       1.0  0.25031  0.50045  0.00062  1.0000
  Ba  Ba3       1.0  0.50036  0.00043  0.00045  1.0000
  Ba  Ba4       1.0  0.75036  0.50039  0.00064  1.0000
  Ba  Ba5       1.0  0.00035  0.00049  0.50043  1.0000
  Ba  Ba6       1.0  0.25035  0.50037  0.50055  1.0000
  Ba  Ba7       1.0  0.50032  0.00041  0.50058  1.0000
  Ba  Ba8       1.0  0.75037  0.50048  0.50070  1.0000
  Zr  Zr1       1.0  0.25035  0.83380  0.00052  1.0000
  Zr  Zr2       1.0  0.50032  0.33372  0.00042  1.0000
  Zr  Zr3       1.0  0.75041  0.83379  0.00054  1.0000
  Zr  Zr4       1.0  0.00036  0.33376  0.00046  1.0000
  Zr  Zr5       1.0  0.25038  0.83368  0.50052  1.0000
  Zr  Zr6       1.0  0.50036  0.33377  0.50045  1.0000
  Zr  Zr7       1.0  0.75033  0.83378  0.50049  1.0000
  Zr  Zr8       1.0  0.00035  0.33382  0.50044  1.0000
  Si  Si1       1.0  0.20882  0.02696  0.25054  1.0000
  Si  Si2       1.0  0.45885  0.52697  0.25042  1.0000
  Si  Si3       1.0  0.70882  0.02703  0.25048  1.0000
  Si  Si4       1.0  0.95889  0.52701  0.25050  1.0000
  Si  Si5       1.0  0.37618  0.19558  0.25053  1.0000
  Si  Si6       1.0  0.62618  0.69560  0.25049  1.0000
  Si  Si7       1.0  0.87619  0.19569  0.25038  1.0000
  Si  Si8       1.0  0.12620  0.69564  0.25054  1.0000
  Si  Si9       1.0  0.33463  0.27870  0.75038  1.0000
  Si  Si10      1.0  0.58469  0.77861  0.75056  1.0000
  Si  Si11      1.0  0.83468  0.27868  0.75050  1.0000
  Si  Si12      1.0  0.08469  0.77864  0.75053  1.0000
  Si  Si13      1.0  0.16602  0.27860  0.25055  1.0000
  Si  Si14      1.0  0.41600  0.77863  0.25044  1.0000
  Si  Si15      1.0  0.66603  0.27868  0.25046  1.0000
  Si  Si16      1.0  0.91606  0.77866  0.25055  1.0000
  Si  Si17      1.0  0.29178  0.02703  0.75044  1.0000
  Si  Si18      1.0  0.54184  0.52694  0.75056  1.0000
  Si  Si19      1.0  0.79185  0.02700  0.75044  1.0000
  Si  Si20      1.0  0.04189  0.52701  0.75049  1.0000
  Si  Si21      1.0  0.12447  0.19567  0.75040  1.0000
  Si  Si22      1.0  0.37453  0.69561  0.75058  1.0000
  Si  Si23      1.0  0.62454  0.19563  0.75044  1.0000
  Si  Si24      1.0  0.87454  0.69565  0.75053  1.0000
  O   O1        1.0  0.37679  0.84013  0.11758  1.0000
  O   O2        1.0  0.62674  0.34006  0.11757  1.0000
  O   O3        1.0  0.87687  0.84008  0.11766  1.0000
  O   O4        1.0  0.12682  0.33986  0.11756  1.0000
  O   O5        1.0  0.18238  0.95714  0.11757  1.0000
  O   O6        1.0  0.43240  0.45700  0.11756  1.0000
  O   O7        1.0  0.68245  0.95714  0.11755  1.0000
  O   O8        1.0  0.93246  0.45700  0.11767  1.0000
  O   O9        1.0  0.37679  0.83995  0.38341  1.0000
  O   O10       1.0  0.62685  0.34005  0.38343  1.0000
  O   O11       1.0  0.87683  0.84001  0.38350  1.0000
  O   O12       1.0  0.12681  0.34019  0.38334  1.0000
  O   O13       1.0  0.30894  0.70411  0.61762  1.0000
  O   O14       1.0  0.55885  0.20418  0.61757  1.0000
  O   O15       1.0  0.80886  0.70425  0.61763  1.0000
  O   O16       1.0  0.05885  0.20419  0.61746  1.0000
  O   O17       1.0  0.19188  0.70427  0.11765  1.0000
  O   O18       1.0  0.44180  0.20412  0.11757  1.0000
  O   O19       1.0  0.69187  0.70425  0.11761  1.0000
  O   O20       1.0  0.94180  0.20413  0.11744  1.0000
  O   O21       1.0  0.18245  0.95696  0.38342  1.0000
  O   O22       1.0  0.43240  0.45706  0.38333  1.0000
  O   O23       1.0  0.68238  0.95701  0.38333  1.0000
  O   O24       1.0  0.93246  0.45718  0.38349  1.0000
  O   O25       1.0  0.12395  0.84001  0.61765  1.0000
  O   O26       1.0  0.37388  0.34011  0.61747  1.0000
  O   O27       1.0  0.62392  0.84001  0.61763  1.0000
  O   O28       1.0  0.87395  0.34002  0.61755  1.0000
  O   O29       1.0  0.30887  0.70414  0.88349  1.0000
  O   O30       1.0  0.55899  0.20416  0.88342  1.0000
  O   O31       1.0  0.80891  0.70416  0.88346  1.0000
  O   O32       1.0  0.05883  0.20423  0.88330  1.0000
  O   O33       1.0  0.19182  0.70409  0.38352  1.0000
  O   O34       1.0  0.44187  0.20412  0.38342  1.0000
  O   O35       1.0  0.69182  0.70415  0.38344  1.0000
  O   O36       1.0  0.94187  0.20430  0.38327  1.0000
  O   O37       1.0  0.12389  0.84002  0.88347  1.0000
  O   O38       1.0  0.37388  0.34008  0.88329  1.0000
  O   O39       1.0  0.62399  0.83995  0.88347  1.0000
  O   O40       1.0  0.87386  0.34005  0.88347  1.0000
  O   O41       1.0  0.31825  0.95705  0.61760  1.0000
  O   O42       1.0  0.56826  0.45700  0.61764  1.0000
  O   O43       1.0  0.81830  0.95714  0.61749  1.0000
  O   O44       1.0  0.06835  0.45706  0.61760  1.0000
  O   O45       1.0  0.31819  0.95715  0.88339  1.0000
  O   O46       1.0  0.56831  0.45701  0.88344  1.0000
  O   O47       1.0  0.81829  0.95711  0.88336  1.0000
  O   O48       1.0  0.06830  0.45712  0.88344  1.0000
  O   O49       1.0  0.14027  0.14225  0.25077  1.0000
  O   O50       1.0  0.39031  0.64227  0.25031  1.0000
  O   O51       1.0  0.64029  0.14233  0.25047  1.0000
  O   O52       1.0  0.89033  0.64230  0.25050  1.0000
  O   O53       1.0  0.32396  0.06942  0.25056  1.0000
  O   O54       1.0  0.57397  0.56943  0.25042  1.0000
  O   O55       1.0  0.82396  0.06950  0.25059  1.0000
  O   O56       1.0  0.07403  0.56945  0.25037  1.0000
  O   O57       1.0  0.21389  0.28957  0.75038  1.0000
  O   O58       1.0  0.46394  0.78953  0.75066  1.0000
  O   O59       1.0  0.71393  0.28956  0.75040  1.0000
  O   O60       1.0  0.96395  0.78954  0.75054  1.0000
  O   O61       1.0  0.28677  0.28946  0.25064  1.0000
  O   O62       1.0  0.53677  0.78951  0.25049  1.0000
  O   O63       1.0  0.78677  0.28960  0.25033  1.0000
  O   O64       1.0  0.03681  0.78952  0.25059  1.0000
  O   O65       1.0  0.36033  0.14234  0.75037  1.0000
  O   O66       1.0  0.61042  0.64224  0.75051  1.0000
  O   O67       1.0  0.86039  0.14232  0.75052  1.0000
  O   O68       1.0  0.11043  0.64230  0.75056  1.0000
  O   O69       1.0  0.17666  0.06946  0.75040  1.0000
  O   O70       1.0  0.42675  0.56944  0.75063  1.0000
  O   O71       1.0  0.67672  0.06945  0.75039  1.0000
  O   O72       1.0  0.92674  0.56946  0.75037  1.0000
