data_image0
_chemical_formula_structural       Na32Mg16Ge16O64
_chemical_formula_sum              "Na32 Mg16 Ge16 O64"
_cell_length_a       11.231
_cell_length_b       10.6266
_cell_length_c       14.2167
_cell_angle_alpha    89.8751
_cell_angle_beta     90.0065
_cell_angle_gamma    90.0223

_space_group_name_H-M_alt    "P 1"
_space_group_IT_number       1

loop_
  _space_group_symop_operation_xyz
  'x, y, z'

loop_
  _atom_site_type_symbol
  _atom_site_label
  _atom_site_symmetry_multiplicity
  _atom_site_fract_x
  _atom_site_fract_y
  _atom_site_fract_z
  _atom_site_occupancy
  Na  Na1       1.0  0.33786  0.72004  0.90325  1.0000
  Na  Na2       1.0  0.33791  0.72004  0.40327  1.0000
  Na  Na3       1.0  0.33789  0.21998  0.90330  1.0000
  Na  Na4       1.0  0.33784  0.21994  0.40330  1.0000
  Na  Na5       1.0  0.83793  0.72000  0.90328  1.0000
  Na  Na6       1.0  0.83792  0.71998  0.40329  1.0000
  Na  Na7       1.0  0.83794  0.21996  0.90330  1.0000
  Na  Na8       1.0  0.83791  0.21997  0.40330  1.0000
  Na  Na9       1.0  0.16268  0.47021  0.65333  1.0000
  Na  Na10      1.0  0.16262  0.47013  0.15331  1.0000
  Na  Na11      1.0  0.16270  0.97025  0.65335  1.0000
  Na  Na12      1.0  0.16269  0.97023  0.15335  1.0000
  Na  Na13      1.0  0.66271  0.47023  0.65336  1.0000
  Na  Na14      1.0  0.66272  0.47023  0.15338  1.0000
  Na  Na15      1.0  0.66261  0.97016  0.65336  1.0000
  Na  Na16      1.0  0.66278  0.97019  0.15338  1.0000
  Na  Na17      1.0  0.41008  0.46935  0.78128  1.0000
  Na  Na18      1.0  0.41012  0.46931  0.28133  1.0000
  Na  Na19      1.0  0.41017  0.96929  0.78131  1.0000
  Na  Na20      1.0  0.41017  0.96928  0.28116  1.0000
  Na  Na21      1.0  0.91018  0.46940  0.78126  1.0000
  Na  Na22      1.0  0.91026  0.46934  0.28120  1.0000
  Na  Na23      1.0  0.91017  0.96936  0.78127  1.0000
  Na  Na24      1.0  0.91021  0.96931  0.28127  1.0000
  Na  Na25      1.0  0.09038  0.21936  0.53159  1.0000
  Na  Na26      1.0  0.09042  0.21933  0.03144  1.0000
  Na  Na27      1.0  0.09038  0.71935  0.53157  1.0000
  Na  Na28      1.0  0.09039  0.71937  0.03154  1.0000
  Na  Na29      1.0  0.59041  0.21941  0.53163  1.0000
  Na  Na30      1.0  0.59044  0.21936  0.03156  1.0000
  Na  Na31      1.0  0.59038  0.71932  0.53153  1.0000
  Na  Na32      1.0  0.59046  0.71935  0.03158  1.0000
  Mg  Mg1       1.0  0.09203  0.71365  0.77841  1.0000
  Mg  Mg2       1.0  0.09201  0.71361  0.27843  1.0000
  Mg  Mg3       1.0  0.09206  0.21370  0.77844  1.0000
  Mg  Mg4       1.0  0.09202  0.21363  0.27840  1.0000
  Mg  Mg5       1.0  0.59199  0.71360  0.77844  1.0000
  Mg  Mg6       1.0  0.59201  0.71362  0.27844  1.0000
  Mg  Mg7       1.0  0.59203  0.21363  0.77849  1.0000
  Mg  Mg8       1.0  0.59198  0.21359  0.27843  1.0000
  Mg  Mg9       1.0  0.40900  0.46360  0.52837  1.0000
  Mg  Mg10      1.0  0.40896  0.46364  0.02838  1.0000
  Mg  Mg11      1.0  0.40897  0.96363  0.52834  1.0000
  Mg  Mg12      1.0  0.40900  0.96358  0.02836  1.0000
  Mg  Mg13      1.0  0.90895  0.46361  0.52834  1.0000
  Mg  Mg14      1.0  0.90894  0.46364  0.02831  1.0000
  Mg  Mg15      1.0  0.90896  0.96368  0.52836  1.0000
  Mg  Mg16      1.0  0.90895  0.96359  0.02835  1.0000
  Ge  Ge1       1.0  0.15901  0.46145  0.90468  1.0000
  Ge  Ge2       1.0  0.15906  0.46138  0.40466  1.0000
  Ge  Ge3       1.0  0.15903  0.96139  0.90468  1.0000
  Ge  Ge4       1.0  0.15902  0.96135  0.40468  1.0000
  Ge  Ge5       1.0  0.65894  0.46139  0.90471  1.0000
  Ge  Ge6       1.0  0.65899  0.46130  0.40464  1.0000
  Ge  Ge7       1.0  0.65898  0.96136  0.90468  1.0000
  Ge  Ge8       1.0  0.65900  0.96138  0.40469  1.0000
  Ge  Ge9       1.0  0.34202  0.21142  0.65466  1.0000
  Ge  Ge10      1.0  0.34197  0.21141  0.15464  1.0000
  Ge  Ge11      1.0  0.34198  0.71139  0.65465  1.0000
  Ge  Ge12      1.0  0.34197  0.71136  0.15466  1.0000
  Ge  Ge13      1.0  0.84203  0.21143  0.65470  1.0000
  Ge  Ge14      1.0  0.84202  0.21141  0.15465  1.0000
  Ge  Ge15      1.0  0.84199  0.71144  0.65464  1.0000
  Ge  Ge16      1.0  0.84200  0.71138  0.15467  1.0000
  O   O1        1.0  0.10308  0.53308  0.80187  1.0000
  O   O2        1.0  0.10313  0.53302  0.30185  1.0000
  O   O3        1.0  0.10312  0.03311  0.80189  1.0000
  O   O4        1.0  0.10309  0.03305  0.30191  1.0000
  O   O5        1.0  0.60302  0.53304  0.80190  1.0000
  O   O6        1.0  0.60302  0.53300  0.30188  1.0000
  O   O7        1.0  0.60299  0.03306  0.80193  1.0000
  O   O8        1.0  0.60309  0.03302  0.30187  1.0000
  O   O9        1.0  0.39788  0.28310  0.55187  1.0000
  O   O10       1.0  0.39781  0.28312  0.05186  1.0000
  O   O11       1.0  0.39784  0.78313  0.55189  1.0000
  O   O12       1.0  0.39782  0.78311  0.05190  1.0000
  O   O13       1.0  0.89783  0.28308  0.55187  1.0000
  O   O14       1.0  0.89780  0.28316  0.05186  1.0000
  O   O15       1.0  0.89787  0.78318  0.55188  1.0000
  O   O16       1.0  0.89780  0.78313  0.05189  1.0000
  O   O17       1.0  0.31059  0.50234  0.91892  1.0000
  O   O18       1.0  0.31066  0.50233  0.41891  1.0000
  O   O19       1.0  0.31064  0.00224  0.91890  1.0000
  O   O20       1.0  0.31064  0.00218  0.41883  1.0000
  O   O21       1.0  0.81055  0.50224  0.91889  1.0000
  O   O22       1.0  0.81059  0.50216  0.41884  1.0000
  O   O23       1.0  0.81059  0.00218  0.91888  1.0000
  O   O24       1.0  0.81062  0.00222  0.41890  1.0000
  O   O25       1.0  0.19043  0.25233  0.66894  1.0000
  O   O26       1.0  0.19037  0.25223  0.16887  1.0000
  O   O27       1.0  0.19041  0.75230  0.66893  1.0000
  O   O28       1.0  0.19039  0.75231  0.16896  1.0000
  O   O29       1.0  0.69049  0.25233  0.66908  1.0000
  O   O30       1.0  0.69045  0.25225  0.16900  1.0000
  O   O31       1.0  0.69038  0.75225  0.66894  1.0000
  O   O32       1.0  0.69044  0.75222  0.16899  1.0000
  O   O33       1.0  0.14745  0.79687  0.89103  1.0000
  O   O34       1.0  0.14738  0.79681  0.39110  1.0000
  O   O35       1.0  0.14751  0.29691  0.89106  1.0000
  O   O36       1.0  0.14753  0.29684  0.39101  1.0000
  O   O37       1.0  0.64734  0.79684  0.89105  1.0000
  O   O38       1.0  0.64746  0.79684  0.39106  1.0000
  O   O39       1.0  0.64736  0.29686  0.89113  1.0000
  O   O40       1.0  0.64741  0.29677  0.39109  1.0000
  O   O41       1.0  0.35353  0.54687  0.64098  1.0000
  O   O42       1.0  0.35351  0.54685  0.14097  1.0000
  O   O43       1.0  0.35359  0.04693  0.64094  1.0000
  O   O44       1.0  0.35353  0.04689  0.14092  1.0000
  O   O45       1.0  0.85357  0.54693  0.64091  1.0000
  O   O46       1.0  0.85355  0.54688  0.14091  1.0000
  O   O47       1.0  0.85349  0.04692  0.64097  1.0000
  O   O48       1.0  0.85355  0.04692  0.14091  1.0000
  O   O49       1.0  0.07645  0.50420  0.50571  1.0000
  O   O50       1.0  0.07640  0.50431  0.00570  1.0000
  O   O51       1.0  0.07645  0.00431  0.50571  1.0000
  O   O52       1.0  0.07645  0.00417  0.00573  1.0000
  O   O53       1.0  0.57650  0.50418  0.50573  1.0000
  O   O54       1.0  0.57644  0.50427  0.00577  1.0000
  O   O55       1.0  0.57645  0.00425  0.50576  1.0000
  O   O56       1.0  0.57648  0.00415  0.00578  1.0000
  O   O57       1.0  0.42455  0.75425  0.75573  1.0000
  O   O58       1.0  0.42455  0.75414  0.25576  1.0000
  O   O59       1.0  0.42458  0.25419  0.75575  1.0000
  O   O60       1.0  0.42451  0.25425  0.25573  1.0000
  O   O61       1.0  0.92455  0.75415  0.75574  1.0000
  O   O62       1.0  0.92454  0.75418  0.25577  1.0000
  O   O63       1.0  0.92459  0.25425  0.75580  1.0000
  O   O64       1.0  0.92456  0.25420  0.25576  1.0000
