data_image0
_chemical_formula_structural       K4Nb16Bi20O72
_chemical_formula_sum              "K4 Nb16 Bi20 O72"
_cell_length_a       12.889
_cell_length_b       11.1081
_cell_length_c       11.1885
_cell_angle_alpha    89.355
_cell_angle_beta     89.8615
_cell_angle_gamma    77.5575

_space_group_name_H-M_alt    "P 1"
_space_group_IT_number       1

loop_
  _space_group_symop_operation_xyz
  'x, y, z'

loop_
  _atom_site_type_symbol
  _atom_site_label
  _atom_site_symmetry_multiplicity
  _atom_site_fract_x
  _atom_site_fract_y
  _atom_site_fract_z
  _atom_site_occupancy
  K   K1        1.0  0.00034  0.37028  0.27131  1.0000
  K   K2        1.0  0.00034  0.37026  0.77136  1.0000
  K   K3        1.0  0.00031  0.87025  0.27136  1.0000
  K   K4        1.0  0.00030  0.87023  0.77128  1.0000
  Nb  Nb1       1.0  0.17081  0.32756  0.02564  1.0000
  Nb  Nb2       1.0  0.17082  0.32760  0.52566  1.0000
  Nb  Nb3       1.0  0.17081  0.82759  0.02564  1.0000
  Nb  Nb4       1.0  0.17080  0.82757  0.52564  1.0000
  Nb  Nb5       1.0  0.82985  0.41277  0.02565  1.0000
  Nb  Nb6       1.0  0.82983  0.41277  0.52567  1.0000
  Nb  Nb7       1.0  0.82984  0.91281  0.02564  1.0000
  Nb  Nb8       1.0  0.82986  0.91279  0.52563  1.0000
  Nb  Nb9       1.0  0.82825  0.16518  0.27162  1.0000
  Nb  Nb10      1.0  0.82828  0.16517  0.77160  1.0000
  Nb  Nb11      1.0  0.82826  0.66517  0.27161  1.0000
  Nb  Nb12      1.0  0.82824  0.66518  0.77161  1.0000
  Nb  Nb13      1.0  0.17234  0.07920  0.27161  1.0000
  Nb  Nb14      1.0  0.17234  0.07916  0.77158  1.0000
  Nb  Nb15      1.0  0.17232  0.57917  0.27160  1.0000
  Nb  Nb16      1.0  0.17234  0.57918  0.77160  1.0000
  Bi  Bi1       1.0  0.00035  0.10756  0.49820  1.0000
  Bi  Bi2       1.0  0.00032  0.10753  0.99818  1.0000
  Bi  Bi3       1.0  0.00031  0.60749  0.49817  1.0000
  Bi  Bi4       1.0  0.00029  0.60755  0.99814  1.0000
  Bi  Bi5       1.0  0.59912  0.24137  0.48492  1.0000
  Bi  Bi6       1.0  0.59914  0.24133  0.98490  1.0000
  Bi  Bi7       1.0  0.59914  0.74137  0.48493  1.0000
  Bi  Bi8       1.0  0.59914  0.74134  0.98491  1.0000
  Bi  Bi9       1.0  0.40151  0.04076  0.48490  1.0000
  Bi  Bi10      1.0  0.40152  0.04076  0.98488  1.0000
  Bi  Bi11      1.0  0.40147  0.54075  0.48487  1.0000
  Bi  Bi12      1.0  0.40150  0.54079  0.98487  1.0000
  Bi  Bi13      1.0  0.40115  0.26289  0.23445  1.0000
  Bi  Bi14      1.0  0.40112  0.26289  0.73446  1.0000
  Bi  Bi15      1.0  0.40115  0.76289  0.23447  1.0000
  Bi  Bi16      1.0  0.40118  0.76288  0.73448  1.0000
  Bi  Bi17      1.0  0.59946  0.46331  0.23444  1.0000
  Bi  Bi18      1.0  0.59947  0.46330  0.73446  1.0000
  Bi  Bi19      1.0  0.59947  0.96331  0.23446  1.0000
  Bi  Bi20      1.0  0.59950  0.96331  0.73446  1.0000
  O   O1        1.0  0.31911  0.26577  0.03750  1.0000
  O   O2        1.0  0.31911  0.26575  0.53749  1.0000
  O   O3        1.0  0.31908  0.76572  0.03751  1.0000
  O   O4        1.0  0.31909  0.76577  0.53753  1.0000
  O   O5        1.0  0.68153  0.42518  0.03750  1.0000
  O   O6        1.0  0.68153  0.42514  0.53747  1.0000
  O   O7        1.0  0.68152  0.92512  0.03745  1.0000
  O   O8        1.0  0.68156  0.92515  0.53748  1.0000
  O   O9        1.0  0.68249  0.23871  0.28829  1.0000
  O   O10       1.0  0.68250  0.23874  0.78833  1.0000
  O   O11       1.0  0.68251  0.73875  0.28838  1.0000
  O   O12       1.0  0.68248  0.73874  0.78833  1.0000
  O   O13       1.0  0.31817  0.07980  0.28834  1.0000
  O   O14       1.0  0.31813  0.07979  0.78832  1.0000
  O   O15       1.0  0.31812  0.57985  0.28837  1.0000
  O   O16       1.0  0.31815  0.57981  0.78834  1.0000
  O   O17       1.0  0.83326  0.06658  0.43396  1.0000
  O   O18       1.0  0.83328  0.06660  0.93397  1.0000
  O   O19       1.0  0.83329  0.56659  0.43396  1.0000
  O   O20       1.0  0.83330  0.56657  0.93395  1.0000
  O   O21       1.0  0.16736  0.48308  0.43397  1.0000
  O   O22       1.0  0.16741  0.48306  0.93395  1.0000
  O   O23       1.0  0.16735  0.98307  0.43397  1.0000
  O   O24       1.0  0.16731  0.98311  0.93400  1.0000
  O   O25       1.0  0.17939  0.43623  0.18011  1.0000
  O   O26       1.0  0.17944  0.43622  0.68011  1.0000
  O   O27       1.0  0.17946  0.93628  0.18008  1.0000
  O   O28       1.0  0.17948  0.93625  0.68009  1.0000
  O   O29       1.0  0.82117  0.02580  0.18011  1.0000
  O   O30       1.0  0.82117  0.02582  0.68008  1.0000
  O   O31       1.0  0.82117  0.52580  0.18009  1.0000
  O   O32       1.0  0.82122  0.52576  0.68014  1.0000
  O   O33       1.0  0.50306  0.13372  0.37751  1.0000
  O   O34       1.0  0.50303  0.13370  0.87747  1.0000
  O   O35       1.0  0.50305  0.63372  0.37750  1.0000
  O   O36       1.0  0.50307  0.63370  0.87748  1.0000
  O   O37       1.0  0.49757  0.38507  0.37753  1.0000
  O   O38       1.0  0.49761  0.38511  0.87752  1.0000
  O   O39       1.0  0.49760  0.88508  0.37749  1.0000
  O   O40       1.0  0.49755  0.88508  0.87747  1.0000
  O   O41       1.0  0.49874  0.37043  0.12740  1.0000
  O   O42       1.0  0.49873  0.37039  0.62740  1.0000
  O   O43       1.0  0.49873  0.87042  0.12739  1.0000
  O   O44       1.0  0.49875  0.87043  0.62734  1.0000
  O   O45       1.0  0.50190  0.11962  0.12736  1.0000
  O   O46       1.0  0.50189  0.11963  0.62737  1.0000
  O   O47       1.0  0.50191  0.61964  0.12739  1.0000
  O   O48       1.0  0.50188  0.61964  0.62737  1.0000
  O   O49       1.0  0.85639  0.29917  0.40009  1.0000
  O   O50       1.0  0.85640  0.29915  0.90008  1.0000
  O   O51       1.0  0.85639  0.79916  0.40010  1.0000
  O   O52       1.0  0.85636  0.79919  0.90009  1.0000
  O   O53       1.0  0.14425  0.22721  0.40012  1.0000
  O   O54       1.0  0.14423  0.22722  0.90010  1.0000
  O   O55       1.0  0.14425  0.72718  0.40013  1.0000
  O   O56       1.0  0.14426  0.72722  0.90011  1.0000
  O   O57       1.0  0.13705  0.19945  0.14447  1.0000
  O   O58       1.0  0.13703  0.19945  0.64445  1.0000
  O   O59       1.0  0.13710  0.69944  0.14448  1.0000
  O   O60       1.0  0.13703  0.69943  0.64450  1.0000
  O   O61       1.0  0.86362  0.26774  0.14444  1.0000
  O   O62       1.0  0.86359  0.26778  0.64448  1.0000
  O   O63       1.0  0.86356  0.76780  0.14448  1.0000
  O   O64       1.0  0.86358  0.76777  0.64449  1.0000
  O   O65       1.0  0.00032  0.41095  0.03479  1.0000
  O   O66       1.0  0.00032  0.41088  0.53476  1.0000
  O   O67       1.0  0.00032  0.91089  0.03481  1.0000
  O   O68       1.0  0.00032  0.91093  0.53479  1.0000
  O   O69       1.0  0.00032  0.10577  0.30219  1.0000
  O   O70       1.0  0.00032  0.10577  0.80214  1.0000
  O   O71       1.0  0.00032  0.60570  0.30214  1.0000
  O   O72       1.0  0.00033  0.60573  0.80214  1.0000
