data_image0
_chemical_formula_structural       Li72Ge24O96
_chemical_formula_sum              "Li72 Ge24 O96"
_cell_length_a       13.4799
_cell_length_b       11.5702
_cell_length_c       11.8891
_cell_angle_alpha    90.0008
_cell_angle_beta     90.0019
_cell_angle_gamma    90.0023

_space_group_name_H-M_alt    "P 1"
_space_group_IT_number       1

loop_
  _space_group_symop_operation_xyz
  'x, y, z'

loop_
  _atom_site_type_symbol
  _atom_site_label
  _atom_site_symmetry_multiplicity
  _atom_site_fract_x
  _atom_site_fract_y
  _atom_site_fract_z
  _atom_site_occupancy
  Li  Li1       1.0  0.13354  0.08082  0.52025  1.0000
  Li  Li2       1.0  0.63350  0.08081  0.52019  1.0000
  Li  Li3       1.0  0.13353  0.58081  0.52026  1.0000
  Li  Li4       1.0  0.63356  0.58076  0.52022  1.0000
  Li  Li5       1.0  0.13354  0.08084  0.18689  1.0000
  Li  Li6       1.0  0.63354  0.08085  0.18685  1.0000
  Li  Li7       1.0  0.13358  0.58079  0.18690  1.0000
  Li  Li8       1.0  0.63357  0.58074  0.18687  1.0000
  Li  Li9       1.0  0.13347  0.08079  0.85357  1.0000
  Li  Li10      1.0  0.63345  0.08085  0.85357  1.0000
  Li  Li11      1.0  0.13349  0.58080  0.85357  1.0000
  Li  Li12      1.0  0.63356  0.58078  0.85355  1.0000
  Li  Li13      1.0  0.11718  0.41990  0.35352  1.0000
  Li  Li14      1.0  0.61721  0.41986  0.35352  1.0000
  Li  Li15      1.0  0.11706  0.91994  0.35355  1.0000
  Li  Li16      1.0  0.61710  0.91997  0.35353  1.0000
  Li  Li17      1.0  0.11720  0.41992  0.02018  1.0000
  Li  Li18      1.0  0.61720  0.41986  0.02018  1.0000
  Li  Li19      1.0  0.11705  0.91994  0.02021  1.0000
  Li  Li20      1.0  0.61709  0.91998  0.02017  1.0000
  Li  Li21      1.0  0.11712  0.41995  0.68685  1.0000
  Li  Li22      1.0  0.61716  0.41990  0.68683  1.0000
  Li  Li23      1.0  0.11705  0.91998  0.68688  1.0000
  Li  Li24      1.0  0.61704  0.91997  0.68686  1.0000
  Li  Li25      1.0  0.38364  0.42011  0.35356  1.0000
  Li  Li26      1.0  0.88365  0.42005  0.35358  1.0000
  Li  Li27      1.0  0.38350  0.92006  0.35355  1.0000
  Li  Li28      1.0  0.88350  0.92009  0.35358  1.0000
  Li  Li29      1.0  0.38363  0.42013  0.02021  1.0000
  Li  Li30      1.0  0.88367  0.42007  0.02021  1.0000
  Li  Li31      1.0  0.38350  0.92004  0.02020  1.0000
  Li  Li32      1.0  0.88348  0.92006  0.02026  1.0000
  Li  Li33      1.0  0.38359  0.42008  0.68686  1.0000
  Li  Li34      1.0  0.88361  0.42009  0.68688  1.0000
  Li  Li35      1.0  0.38347  0.92005  0.68689  1.0000
  Li  Li36      1.0  0.88349  0.92008  0.68690  1.0000
  Li  Li37      1.0  0.36703  0.08093  0.52019  1.0000
  Li  Li38      1.0  0.86707  0.08091  0.52022  1.0000
  Li  Li39      1.0  0.36708  0.58097  0.52018  1.0000
  Li  Li40      1.0  0.86705  0.58093  0.52024  1.0000
  Li  Li41      1.0  0.36709  0.08091  0.18683  1.0000
  Li  Li42      1.0  0.86711  0.08093  0.18688  1.0000
  Li  Li43      1.0  0.36711  0.58100  0.18687  1.0000
  Li  Li44      1.0  0.86709  0.58094  0.18688  1.0000
  Li  Li45      1.0  0.36703  0.08091  0.85352  1.0000
  Li  Li46      1.0  0.86703  0.08090  0.85353  1.0000
  Li  Li47      1.0  0.36705  0.58096  0.85354  1.0000
  Li  Li48      1.0  0.86704  0.58094  0.85352  1.0000
  Li  Li49      1.0  0.50038  0.34356  0.52018  1.0000
  Li  Li50      1.0  0.00039  0.34358  0.52024  1.0000
  Li  Li51      1.0  0.50024  0.84368  0.52021  1.0000
  Li  Li52      1.0  0.00025  0.84363  0.52026  1.0000
  Li  Li53      1.0  0.50043  0.34363  0.18685  1.0000
  Li  Li54      1.0  0.00048  0.34358  0.18687  1.0000
  Li  Li55      1.0  0.50030  0.84366  0.18686  1.0000
  Li  Li56      1.0  0.00025  0.84369  0.18691  1.0000
  Li  Li57      1.0  0.50035  0.34361  0.85354  1.0000
  Li  Li58      1.0  0.00036  0.34354  0.85354  1.0000
  Li  Li59      1.0  0.50026  0.84365  0.85354  1.0000
  Li  Li60      1.0  0.00023  0.84366  0.85357  1.0000
  Li  Li61      1.0  0.25028  0.15727  0.35353  1.0000
  Li  Li62      1.0  0.75029  0.15730  0.35354  1.0000
  Li  Li63      1.0  0.25030  0.65737  0.35354  1.0000
  Li  Li64      1.0  0.75029  0.65738  0.35354  1.0000
  Li  Li65      1.0  0.25029  0.15731  0.02020  1.0000
  Li  Li66      1.0  0.75028  0.15728  0.02019  1.0000
  Li  Li67      1.0  0.25027  0.65741  0.02021  1.0000
  Li  Li68      1.0  0.75027  0.65733  0.02022  1.0000
  Li  Li69      1.0  0.25024  0.15735  0.68688  1.0000
  Li  Li70      1.0  0.75023  0.15728  0.68686  1.0000
  Li  Li71      1.0  0.25027  0.65735  0.68690  1.0000
  Li  Li72      1.0  0.75028  0.65741  0.68687  1.0000
  Ge  Ge1       1.0  0.50031  0.16772  0.68697  1.0000
  Ge  Ge2       1.0  0.00035  0.16772  0.68699  1.0000
  Ge  Ge3       1.0  0.50038  0.66773  0.68697  1.0000
  Ge  Ge4       1.0  0.00033  0.66776  0.68702  1.0000
  Ge  Ge5       1.0  0.50035  0.16773  0.35364  1.0000
  Ge  Ge6       1.0  0.00038  0.16771  0.35365  1.0000
  Ge  Ge7       1.0  0.50041  0.66772  0.35366  1.0000
  Ge  Ge8       1.0  0.00035  0.66773  0.35366  1.0000
  Ge  Ge9       1.0  0.50033  0.16774  0.02029  1.0000
  Ge  Ge10      1.0  0.00037  0.16769  0.02033  1.0000
  Ge  Ge11      1.0  0.50039  0.66773  0.02030  1.0000
  Ge  Ge12      1.0  0.00035  0.66775  0.02035  1.0000
  Ge  Ge13      1.0  0.25049  0.33311  0.52029  1.0000
  Ge  Ge14      1.0  0.75048  0.33307  0.52030  1.0000
  Ge  Ge15      1.0  0.25033  0.83309  0.52031  1.0000
  Ge  Ge16      1.0  0.75035  0.83312  0.52031  1.0000
  Ge  Ge17      1.0  0.25056  0.33309  0.18695  1.0000
  Ge  Ge18      1.0  0.75057  0.33307  0.18694  1.0000
  Ge  Ge19      1.0  0.25036  0.83313  0.18697  1.0000
  Ge  Ge20      1.0  0.75036  0.83312  0.18696  1.0000
  Ge  Ge21      1.0  0.25044  0.33309  0.85361  1.0000
  Ge  Ge22      1.0  0.75049  0.33308  0.85363  1.0000
  Ge  Ge23      1.0  0.25032  0.83311  0.85363  1.0000
  Ge  Ge24      1.0  0.75031  0.83312  0.85364  1.0000
  O   O1        1.0  0.11307  0.08923  0.35347  1.0000
  O   O2        1.0  0.61306  0.08927  0.35345  1.0000
  O   O3        1.0  0.11305  0.58923  0.35348  1.0000
  O   O4        1.0  0.61308  0.58918  0.35349  1.0000
  O   O5        1.0  0.11307  0.08922  0.02016  1.0000
  O   O6        1.0  0.61303  0.08927  0.02015  1.0000
  O   O7        1.0  0.11305  0.58923  0.02018  1.0000
  O   O8        1.0  0.61305  0.58919  0.02016  1.0000
  O   O9        1.0  0.11304  0.08926  0.68683  1.0000
  O   O10       1.0  0.61302  0.08926  0.68677  1.0000
  O   O11       1.0  0.11302  0.58926  0.68684  1.0000
  O   O12       1.0  0.61306  0.58924  0.68680  1.0000
  O   O13       1.0  0.13771  0.41151  0.52014  1.0000
  O   O14       1.0  0.63773  0.41142  0.52012  1.0000
  O   O15       1.0  0.13756  0.91149  0.52014  1.0000
  O   O16       1.0  0.63760  0.91148  0.52013  1.0000
  O   O17       1.0  0.13780  0.41146  0.18681  1.0000
  O   O18       1.0  0.63780  0.41143  0.18679  1.0000
  O   O19       1.0  0.13760  0.91151  0.18682  1.0000
  O   O20       1.0  0.63763  0.91152  0.18681  1.0000
  O   O21       1.0  0.13769  0.41147  0.85347  1.0000
  O   O22       1.0  0.63774  0.41148  0.85347  1.0000
  O   O23       1.0  0.13756  0.91148  0.85348  1.0000
  O   O24       1.0  0.63758  0.91151  0.85347  1.0000
  O   O25       1.0  0.36312  0.41161  0.52014  1.0000
  O   O26       1.0  0.86314  0.41158  0.52016  1.0000
  O   O27       1.0  0.36299  0.91161  0.52012  1.0000
  O   O28       1.0  0.86301  0.91159  0.52017  1.0000
  O   O29       1.0  0.36320  0.41164  0.18682  1.0000
  O   O30       1.0  0.86324  0.41157  0.18682  1.0000
  O   O31       1.0  0.36303  0.91161  0.18681  1.0000
  O   O32       1.0  0.86302  0.91162  0.18684  1.0000
  O   O33       1.0  0.36310  0.41159  0.85347  1.0000
  O   O34       1.0  0.86314  0.41158  0.85348  1.0000
  O   O35       1.0  0.36299  0.91157  0.85346  1.0000
  O   O36       1.0  0.86299  0.91159  0.85351  1.0000
  O   O37       1.0  0.38759  0.08937  0.35345  1.0000
  O   O38       1.0  0.88759  0.08938  0.35348  1.0000
  O   O39       1.0  0.38762  0.58941  0.35348  1.0000
  O   O40       1.0  0.88757  0.58937  0.35349  1.0000
  O   O41       1.0  0.38759  0.08935  0.02011  1.0000
  O   O42       1.0  0.88758  0.08935  0.02013  1.0000
  O   O43       1.0  0.38760  0.58945  0.02014  1.0000
  O   O44       1.0  0.88759  0.58938  0.02016  1.0000
  O   O45       1.0  0.38754  0.08938  0.68678  1.0000
  O   O46       1.0  0.88758  0.08937  0.68682  1.0000
  O   O47       1.0  0.38759  0.58939  0.68681  1.0000
  O   O48       1.0  0.88755  0.58940  0.68682  1.0000
  O   O49       1.0  0.50038  0.32046  0.35345  1.0000
  O   O50       1.0  0.00040  0.32045  0.35349  1.0000
  O   O51       1.0  0.50033  0.82047  0.35348  1.0000
  O   O52       1.0  0.00026  0.82047  0.35349  1.0000
  O   O53       1.0  0.50036  0.32045  0.02013  1.0000
  O   O54       1.0  0.00042  0.32044  0.02013  1.0000
  O   O55       1.0  0.50031  0.82046  0.02014  1.0000
  O   O56       1.0  0.00028  0.82044  0.02019  1.0000
  O   O57       1.0  0.50035  0.32047  0.68678  1.0000
  O   O58       1.0  0.00035  0.32041  0.68681  1.0000
  O   O59       1.0  0.50027  0.82045  0.68680  1.0000
  O   O60       1.0  0.00027  0.82050  0.68684  1.0000
  O   O61       1.0  0.25029  0.18042  0.52013  1.0000
  O   O62       1.0  0.75032  0.18036  0.52014  1.0000
  O   O63       1.0  0.25028  0.68040  0.52014  1.0000
  O   O64       1.0  0.75029  0.68041  0.52014  1.0000
  O   O65       1.0  0.25038  0.18039  0.18681  1.0000
  O   O66       1.0  0.75037  0.18036  0.18679  1.0000
  O   O67       1.0  0.25031  0.68042  0.18682  1.0000
  O   O68       1.0  0.75030  0.68041  0.18682  1.0000
  O   O69       1.0  0.25027  0.18040  0.85348  1.0000
  O   O70       1.0  0.75027  0.18038  0.85348  1.0000
  O   O71       1.0  0.25025  0.68040  0.85347  1.0000
  O   O72       1.0  0.75027  0.68041  0.85349  1.0000
  O   O73       1.0  0.50029  0.16613  0.52011  1.0000
  O   O74       1.0  0.00034  0.16612  0.52020  1.0000
  O   O75       1.0  0.50035  0.66619  0.52013  1.0000
  O   O76       1.0  0.00034  0.66617  0.52019  1.0000
  O   O77       1.0  0.50031  0.16618  0.18684  1.0000
  O   O78       1.0  0.00034  0.16616  0.18684  1.0000
  O   O79       1.0  0.50040  0.66618  0.18683  1.0000
  O   O80       1.0  0.00034  0.66619  0.18685  1.0000
  O   O81       1.0  0.50029  0.16616  0.85349  1.0000
  O   O82       1.0  0.00028  0.16611  0.85351  1.0000
  O   O83       1.0  0.50037  0.66617  0.85349  1.0000
  O   O84       1.0  0.00030  0.66619  0.85355  1.0000
  O   O85       1.0  0.25046  0.33473  0.35347  1.0000
  O   O86       1.0  0.75047  0.33470  0.35347  1.0000
  O   O87       1.0  0.25031  0.83476  0.35351  1.0000
  O   O88       1.0  0.75031  0.83478  0.35349  1.0000
  O   O89       1.0  0.25047  0.33474  0.02015  1.0000
  O   O90       1.0  0.75050  0.33471  0.02014  1.0000
  O   O91       1.0  0.25028  0.83479  0.02019  1.0000
  O   O92       1.0  0.75029  0.83476  0.02016  1.0000
  O   O93       1.0  0.25040  0.33475  0.68679  1.0000
  O   O94       1.0  0.75044  0.33471  0.68683  1.0000
  O   O95       1.0  0.25027  0.83477  0.68682  1.0000
  O   O96       1.0  0.75030  0.83478  0.68683  1.0000
