data_image0
_chemical_formula_structural       Ba16Sr4Hf20O60
_chemical_formula_sum              "Ba16 Sr4 Hf20 O60"
_cell_length_a       12.4632
_cell_length_b       11.7576
_cell_length_c       10.1825
_cell_angle_alpha    89.9998
_cell_angle_beta     97.8257
_cell_angle_gamma    103.642

_space_group_name_H-M_alt    "P 1"
_space_group_IT_number       1

loop_
  _space_group_symop_operation_xyz
  'x, y, z'

loop_
  _atom_site_type_symbol
  _atom_site_label
  _atom_site_symmetry_multiplicity
  _atom_site_fract_x
  _atom_site_fract_y
  _atom_site_fract_z
  _atom_site_occupancy
  Ba  Ba1       1.0  0.69958  0.42524  0.95035  1.0000
  Ba  Ba2       1.0  0.69958  0.92522  0.95039  1.0000
  Ba  Ba3       1.0  0.69955  0.17526  0.45037  1.0000
  Ba  Ba4       1.0  0.69960  0.67522  0.45031  1.0000
  Ba  Ba5       1.0  0.90077  0.97558  0.65053  1.0000
  Ba  Ba6       1.0  0.90079  0.47557  0.65055  1.0000
  Ba  Ba7       1.0  0.90073  0.72551  0.15052  1.0000
  Ba  Ba8       1.0  0.90069  0.22554  0.15051  1.0000
  Ba  Ba9       1.0  0.10045  0.27550  0.85053  1.0000
  Ba  Ba10      1.0  0.10042  0.77548  0.85051  1.0000
  Ba  Ba11      1.0  0.10040  0.02548  0.35052  1.0000
  Ba  Ba12      1.0  0.10042  0.52546  0.35053  1.0000
  Ba  Ba13      1.0  0.30160  0.82576  0.55067  1.0000
  Ba  Ba14      1.0  0.30162  0.32576  0.55075  1.0000
  Ba  Ba15      1.0  0.30160  0.57577  0.05068  1.0000
  Ba  Ba16      1.0  0.30158  0.07581  0.05075  1.0000
  Sr  Sr1       1.0  0.50061  0.12538  0.75079  1.0000
  Sr  Sr2       1.0  0.50077  0.62563  0.75038  1.0000
  Sr  Sr3       1.0  0.50060  0.87554  0.25025  1.0000
  Sr  Sr4       1.0  0.50045  0.37551  0.25084  1.0000
  Hf  Hf1       1.0  0.40168  0.35077  0.90068  1.0000
  Hf  Hf2       1.0  0.40173  0.85071  0.90075  1.0000
  Hf  Hf3       1.0  0.40170  0.10080  0.40075  1.0000
  Hf  Hf4       1.0  0.40171  0.60081  0.40073  1.0000
  Hf  Hf5       1.0  0.00060  0.75050  0.50052  1.0000
  Hf  Hf6       1.0  0.00056  0.25049  0.50056  1.0000
  Hf  Hf7       1.0  0.00060  0.50051  0.00050  1.0000
  Hf  Hf8       1.0  0.00058  0.00049  0.00053  1.0000
  Hf  Hf9       1.0  0.20224  0.05091  0.70082  1.0000
  Hf  Hf10      1.0  0.20226  0.55092  0.70078  1.0000
  Hf  Hf11      1.0  0.20223  0.80093  0.20083  1.0000
  Hf  Hf12      1.0  0.20217  0.30092  0.20079  1.0000
  Hf  Hf13      1.0  0.59953  0.90029  0.60032  1.0000
  Hf  Hf14      1.0  0.59949  0.40023  0.60037  1.0000
  Hf  Hf15      1.0  0.59948  0.65015  0.10037  1.0000
  Hf  Hf16      1.0  0.59942  0.15021  0.10041  1.0000
  Hf  Hf17      1.0  0.79896  0.20010  0.80030  1.0000
  Hf  Hf18      1.0  0.79895  0.70011  0.80022  1.0000
  Hf  Hf19      1.0  0.79899  0.95007  0.30023  1.0000
  Hf  Hf20      1.0  0.79896  0.45007  0.30022  1.0000
  O   O1        1.0  0.50073  0.87558  0.75067  1.0000
  O   O2        1.0  0.50064  0.37572  0.75057  1.0000
  O   O3        1.0  0.50061  0.62553  0.25057  1.0000
  O   O4        1.0  0.50065  0.12549  0.25066  1.0000
  O   O5        1.0  0.10110  0.02574  0.85060  1.0000
  O   O6        1.0  0.10101  0.52556  0.85049  1.0000
  O   O7        1.0  0.10116  0.77559  0.35065  1.0000
  O   O8        1.0  0.10111  0.27561  0.35062  1.0000
  O   O9        1.0  0.30303  0.07617  0.55219  1.0000
  O   O10       1.0  0.30321  0.57607  0.55234  1.0000
  O   O11       1.0  0.30317  0.82610  0.05231  1.0000
  O   O12       1.0  0.30311  0.32609  0.05227  1.0000
  O   O13       1.0  0.69783  0.17474  0.94864  1.0000
  O   O14       1.0  0.69800  0.67478  0.94873  1.0000
  O   O15       1.0  0.69802  0.92475  0.44872  1.0000
  O   O16       1.0  0.69805  0.42487  0.44875  1.0000
  O   O17       1.0  0.90020  0.22541  0.65063  1.0000
  O   O18       1.0  0.90011  0.72535  0.65048  1.0000
  O   O19       1.0  0.90014  0.97546  0.15054  1.0000
  O   O20       1.0  0.90007  0.47540  0.15042  1.0000
  O   O21       1.0  0.30320  0.20012  0.80022  1.0000
  O   O22       1.0  0.30326  0.70013  0.80021  1.0000
  O   O23       1.0  0.30323  0.95021  0.30016  1.0000
  O   O24       1.0  0.30314  0.45021  0.30017  1.0000
  O   O25       1.0  0.90015  0.35026  0.90055  1.0000
  O   O26       1.0  0.90016  0.85028  0.90045  1.0000
  O   O27       1.0  0.90014  0.10028  0.40054  1.0000
  O   O28       1.0  0.90026  0.60026  0.40039  1.0000
  O   O29       1.0  0.10096  0.90070  0.60066  1.0000
  O   O30       1.0  0.10100  0.40071  0.60059  1.0000
  O   O31       1.0  0.10105  0.65068  0.10067  1.0000
  O   O32       1.0  0.10099  0.15063  0.10072  1.0000
  O   O33       1.0  0.50060  0.75039  0.50083  1.0000
  O   O34       1.0  0.50065  0.25045  0.50067  1.0000
  O   O35       1.0  0.50059  0.50041  0.00064  1.0000
  O   O36       1.0  0.50047  0.00041  0.00073  1.0000
  O   O37       1.0  0.69806  0.05095  0.70068  1.0000
  O   O38       1.0  0.69790  0.55097  0.70071  1.0000
  O   O39       1.0  0.69795  0.80087  0.20079  1.0000
  O   O40       1.0  0.69800  0.30087  0.20071  1.0000
  O   O41       1.0  0.30323  0.95212  0.80019  1.0000
  O   O42       1.0  0.30310  0.45209  0.80029  1.0000
  O   O43       1.0  0.30328  0.70230  0.30034  1.0000
  O   O44       1.0  0.30343  0.20241  0.30022  1.0000
  O   O45       1.0  0.90008  0.10038  0.90042  1.0000
  O   O46       1.0  0.90016  0.60040  0.90031  1.0000
  O   O47       1.0  0.90013  0.85036  0.40027  1.0000
  O   O48       1.0  0.90011  0.35034  0.40028  1.0000
  O   O49       1.0  0.10103  0.15062  0.60078  1.0000
  O   O50       1.0  0.10116  0.65071  0.60067  1.0000
  O   O51       1.0  0.10102  0.90057  0.10072  1.0000
  O   O52       1.0  0.10095  0.40051  0.10067  1.0000
  O   O53       1.0  0.50049  0.00045  0.50062  1.0000
  O   O54       1.0  0.50053  0.50036  0.50037  1.0000
  O   O55       1.0  0.50064  0.75050  0.00059  1.0000
  O   O56       1.0  0.50052  0.25036  0.00043  1.0000
  O   O57       1.0  0.69809  0.29895  0.70083  1.0000
  O   O58       1.0  0.69802  0.79888  0.70084  1.0000
  O   O59       1.0  0.69791  0.04874  0.20082  1.0000
  O   O60       1.0  0.69803  0.54887  0.20086  1.0000
