data_image0
_chemical_formula_structural       Ca8Y8Ga24O56
_chemical_formula_sum              "Ca8 Y8 Ga24 O56"
_cell_length_a       11.059
_cell_length_b       11.122
_cell_length_c       10.3634
_cell_angle_alpha    90.0026
_cell_angle_beta     90.0096
_cell_angle_gamma    90.0045

_space_group_name_H-M_alt    "P 1"
_space_group_IT_number       1

loop_
  _space_group_symop_operation_xyz
  'x, y, z'

loop_
  _atom_site_type_symbol
  _atom_site_label
  _atom_site_symmetry_multiplicity
  _atom_site_fract_x
  _atom_site_fract_y
  _atom_site_fract_z
  _atom_site_occupancy
  Ca  Ca1       1.0  0.50063  0.34047  0.24205  1.0000
  Ca  Ca2       1.0  0.50062  0.34054  0.74215  1.0000
  Ca  Ca3       1.0  0.00042  0.84036  0.24220  1.0000
  Ca  Ca4       1.0  0.00035  0.84044  0.74231  1.0000
  Ca  Ca5       1.0  0.50044  0.66048  0.24207  1.0000
  Ca  Ca6       1.0  0.50035  0.66047  0.74209  1.0000
  Ca  Ca7       1.0  0.00051  0.16041  0.24212  1.0000
  Ca  Ca8       1.0  0.00038  0.16040  0.74213  1.0000
  Y   Y1        1.0  0.66059  0.00037  0.25793  1.0000
  Y   Y2        1.0  0.66060  0.00050  0.75797  1.0000
  Y   Y3        1.0  0.16057  0.50030  0.25801  1.0000
  Y   Y4        1.0  0.16058  0.50038  0.75796  1.0000
  Y   Y5        1.0  0.34038  0.00034  0.25804  1.0000
  Y   Y6        1.0  0.34046  0.00046  0.75792  1.0000
  Y   Y7        1.0  0.84040  0.50034  0.25801  1.0000
  Y   Y8        1.0  0.84039  0.50057  0.75796  1.0000
  Ga  Ga1       1.0  0.25030  0.75042  0.50052  1.0000
  Ga  Ga2       1.0  0.25034  0.75042  0.00033  1.0000
  Ga  Ga3       1.0  0.75037  0.25040  0.50038  1.0000
  Ga  Ga4       1.0  0.75043  0.25043  0.00036  1.0000
  Ga  Ga5       1.0  0.25043  0.25038  0.50055  1.0000
  Ga  Ga6       1.0  0.25043  0.25046  0.00045  1.0000
  Ga  Ga7       1.0  0.75038  0.75035  0.50044  1.0000
  Ga  Ga8       1.0  0.75043  0.75047  0.00048  1.0000
  Ga  Ga9       1.0  0.50049  0.14442  0.01885  1.0000
  Ga  Ga10      1.0  0.50046  0.14441  0.51880  1.0000
  Ga  Ga11      1.0  0.00040  0.64439  0.01890  1.0000
  Ga  Ga12      1.0  0.00047  0.64437  0.51888  1.0000
  Ga  Ga13      1.0  0.85335  0.00040  0.48143  1.0000
  Ga  Ga14      1.0  0.85338  0.00040  0.98145  1.0000
  Ga  Ga15      1.0  0.35331  0.50044  0.48145  1.0000
  Ga  Ga16      1.0  0.35331  0.50044  0.98142  1.0000
  Ga  Ga17      1.0  0.50037  0.85654  0.01884  1.0000
  Ga  Ga18      1.0  0.50037  0.85649  0.51891  1.0000
  Ga  Ga19      1.0  0.00047  0.35647  0.01884  1.0000
  Ga  Ga20      1.0  0.00041  0.35641  0.51887  1.0000
  Ga  Ga21      1.0  0.14750  0.00036  0.48138  1.0000
  Ga  Ga22      1.0  0.14762  0.00034  0.98133  1.0000
  Ga  Ga23      1.0  0.64746  0.50038  0.48134  1.0000
  Ga  Ga24      1.0  0.64750  0.50040  0.98134  1.0000
  O   O1        1.0  0.62571  0.21465  0.10906  1.0000
  O   O2        1.0  0.62560  0.21477  0.60904  1.0000
  O   O3        1.0  0.12553  0.71489  0.10899  1.0000
  O   O4        1.0  0.12554  0.71475  0.60919  1.0000
  O   O5        1.0  0.77489  0.87827  0.39124  1.0000
  O   O6        1.0  0.77489  0.87834  0.89120  1.0000
  O   O7        1.0  0.27489  0.37827  0.39131  1.0000
  O   O8        1.0  0.27476  0.37839  0.89123  1.0000
  O   O9        1.0  0.37528  0.78597  0.10889  1.0000
  O   O10       1.0  0.37518  0.78620  0.60908  1.0000
  O   O11       1.0  0.87543  0.28586  0.10889  1.0000
  O   O12       1.0  0.87528  0.28598  0.60894  1.0000
  O   O13       1.0  0.22610  0.12245  0.39126  1.0000
  O   O14       1.0  0.22619  0.12247  0.89125  1.0000
  O   O15       1.0  0.72604  0.62241  0.39122  1.0000
  O   O16       1.0  0.72608  0.62250  0.89129  1.0000
  O   O17       1.0  0.22594  0.87826  0.39119  1.0000
  O   O18       1.0  0.22608  0.87831  0.89105  1.0000
  O   O19       1.0  0.72592  0.37827  0.39113  1.0000
  O   O20       1.0  0.72590  0.37831  0.89111  1.0000
  O   O21       1.0  0.62557  0.78617  0.10900  1.0000
  O   O22       1.0  0.62549  0.78592  0.60898  1.0000
  O   O23       1.0  0.12565  0.28618  0.10907  1.0000
  O   O24       1.0  0.12556  0.28604  0.60903  1.0000
  O   O25       1.0  0.77478  0.12241  0.39125  1.0000
  O   O26       1.0  0.77501  0.12251  0.89116  1.0000
  O   O27       1.0  0.27471  0.62249  0.39134  1.0000
  O   O28       1.0  0.27488  0.62250  0.89119  1.0000
  O   O29       1.0  0.37550  0.21508  0.10885  1.0000
  O   O30       1.0  0.37541  0.21483  0.60901  1.0000
  O   O31       1.0  0.87528  0.71476  0.10907  1.0000
  O   O32       1.0  0.87529  0.71470  0.60901  1.0000
  O   O33       1.0  0.50051  0.12926  0.34480  1.0000
  O   O34       1.0  0.50060  0.12942  0.84485  1.0000
  O   O35       1.0  0.00044  0.62927  0.34487  1.0000
  O   O36       1.0  0.00042  0.62936  0.84489  1.0000
  O   O37       1.0  0.84812  0.00021  0.15510  1.0000
  O   O38       1.0  0.84809  0.00041  0.65509  1.0000
  O   O39       1.0  0.34802  0.50045  0.15508  1.0000
  O   O40       1.0  0.34812  0.50048  0.65512  1.0000
  O   O41       1.0  0.50044  0.87141  0.34487  1.0000
  O   O42       1.0  0.50056  0.87155  0.84479  1.0000
  O   O43       1.0  0.00041  0.37143  0.34485  1.0000
  O   O44       1.0  0.00042  0.37156  0.84484  1.0000
  O   O45       1.0  0.15293  0.00037  0.15499  1.0000
  O   O46       1.0  0.15284  0.00047  0.65505  1.0000
  O   O47       1.0  0.65295  0.50024  0.15500  1.0000
  O   O48       1.0  0.65289  0.50037  0.65500  1.0000
  O   O49       1.0  0.00042  0.00046  0.40062  1.0000
  O   O50       1.0  0.00048  0.00044  0.90073  1.0000
  O   O51       1.0  0.50035  0.50054  0.40061  1.0000
  O   O52       1.0  0.50038  0.50045  0.90065  1.0000
  O   O53       1.0  0.50032  0.00046  0.10915  1.0000
  O   O54       1.0  0.50052  0.00046  0.60913  1.0000
  O   O55       1.0  0.00045  0.50041  0.10916  1.0000
  O   O56       1.0  0.00052  0.50038  0.60914  1.0000
