data_image0
_chemical_formula_structural       Li16Y16Ge16O64
_chemical_formula_sum              "Li16 Y16 Ge16 O64"
_cell_length_a       10.1125
_cell_length_b       12.6343
_cell_length_c       11.1221
_cell_angle_alpha    89.9954
_cell_angle_beta     89.9996
_cell_angle_gamma    89.9946

_space_group_name_H-M_alt    "P 1"
_space_group_IT_number       1

loop_
  _space_group_symop_operation_xyz
  'x, y, z'

loop_
  _atom_site_type_symbol
  _atom_site_label
  _atom_site_symmetry_multiplicity
  _atom_site_fract_x
  _atom_site_fract_y
  _atom_site_fract_z
  _atom_site_occupancy
  Li  Li1       1.0  0.25044  0.25042  0.50041  1.0000
  Li  Li2       1.0  0.25057  0.75046  0.50033  1.0000
  Li  Li3       1.0  0.75060  0.25014  0.50031  1.0000
  Li  Li4       1.0  0.75055  0.75017  0.50046  1.0000
  Li  Li5       1.0  0.00038  0.25036  0.00055  1.0000
  Li  Li6       1.0  0.00049  0.75037  0.00054  1.0000
  Li  Li7       1.0  0.50034  0.25039  0.00049  1.0000
  Li  Li8       1.0  0.50018  0.75024  0.00045  1.0000
  Li  Li9       1.0  0.25035  0.00020  0.50045  1.0000
  Li  Li10      1.0  0.25042  0.50018  0.50049  1.0000
  Li  Li11      1.0  0.75041  0.00018  0.50049  1.0000
  Li  Li12      1.0  0.75055  0.50025  0.50059  1.0000
  Li  Li13      1.0  0.00071  0.00029  0.00055  1.0000
  Li  Li14      1.0  0.00064  0.50035  0.00054  1.0000
  Li  Li15      1.0  0.50055  0.00038  0.00055  1.0000
  Li  Li16      1.0  0.50064  0.50034  0.00054  1.0000
  Y   Y1        1.0  0.00704  0.37544  0.72728  1.0000
  Y   Y2        1.0  0.00702  0.87548  0.72730  1.0000
  Y   Y3        1.0  0.50705  0.37546  0.72727  1.0000
  Y   Y4        1.0  0.50717  0.87546  0.72729  1.0000
  Y   Y5        1.0  0.49394  0.12539  0.27365  1.0000
  Y   Y6        1.0  0.49402  0.62536  0.27366  1.0000
  Y   Y7        1.0  0.99392  0.12540  0.27367  1.0000
  Y   Y8        1.0  0.99390  0.62541  0.27365  1.0000
  Y   Y9        1.0  0.25711  0.12546  0.77359  1.0000
  Y   Y10       1.0  0.25711  0.62546  0.77361  1.0000
  Y   Y11       1.0  0.75708  0.12550  0.77364  1.0000
  Y   Y12       1.0  0.75712  0.62550  0.77361  1.0000
  Y   Y13       1.0  0.24393  0.37542  0.22721  1.0000
  Y   Y14       1.0  0.24395  0.87539  0.22722  1.0000
  Y   Y15       1.0  0.74380  0.37543  0.22729  1.0000
  Y   Y16       1.0  0.74385  0.87540  0.22723  1.0000
  Ge  Ge1       1.0  0.28630  0.37546  0.91787  1.0000
  Ge  Ge2       1.0  0.28634  0.87550  0.91783  1.0000
  Ge  Ge3       1.0  0.78629  0.37553  0.91793  1.0000
  Ge  Ge4       1.0  0.78634  0.87545  0.91798  1.0000
  Ge  Ge5       1.0  0.21466  0.12554  0.08304  1.0000
  Ge  Ge6       1.0  0.21467  0.62548  0.08308  1.0000
  Ge  Ge7       1.0  0.71462  0.12546  0.08300  1.0000
  Ge  Ge8       1.0  0.71464  0.62548  0.08297  1.0000
  Ge  Ge9       1.0  0.03642  0.12551  0.58300  1.0000
  Ge  Ge10      1.0  0.03644  0.62552  0.58302  1.0000
  Ge  Ge11      1.0  0.53637  0.12557  0.58301  1.0000
  Ge  Ge12      1.0  0.53638  0.62545  0.58302  1.0000
  Ge  Ge13      1.0  0.46458  0.37546  0.41789  1.0000
  Ge  Ge14      1.0  0.46465  0.87544  0.41786  1.0000
  Ge  Ge15      1.0  0.96457  0.37542  0.41783  1.0000
  Ge  Ge16      1.0  0.96455  0.87545  0.41785  1.0000
  O   O1        1.0  0.36352  0.26891  0.83804  1.0000
  O   O2        1.0  0.36355  0.76893  0.83797  1.0000
  O   O3        1.0  0.86349  0.26893  0.83813  1.0000
  O   O4        1.0  0.86356  0.76891  0.83808  1.0000
  O   O5        1.0  0.13734  0.23201  0.16284  1.0000
  O   O6        1.0  0.13737  0.73199  0.16288  1.0000
  O   O7        1.0  0.63739  0.23198  0.16287  1.0000
  O   O8        1.0  0.63742  0.73198  0.16294  1.0000
  O   O9        1.0  0.11365  0.23204  0.66284  1.0000
  O   O10       1.0  0.11357  0.73203  0.66289  1.0000
  O   O11       1.0  0.61363  0.23209  0.66280  1.0000
  O   O12       1.0  0.61361  0.73202  0.66276  1.0000
  O   O13       1.0  0.13753  0.01893  0.16288  1.0000
  O   O14       1.0  0.13742  0.51888  0.16287  1.0000
  O   O15       1.0  0.63739  0.01886  0.16275  1.0000
  O   O16       1.0  0.63738  0.51887  0.16271  1.0000
  O   O17       1.0  0.38749  0.26888  0.33797  1.0000
  O   O18       1.0  0.38757  0.76888  0.33795  1.0000
  O   O19       1.0  0.88738  0.26884  0.33803  1.0000
  O   O20       1.0  0.88742  0.76889  0.33803  1.0000
  O   O21       1.0  0.36352  0.48200  0.83800  1.0000
  O   O22       1.0  0.36363  0.98201  0.83799  1.0000
  O   O23       1.0  0.86354  0.48201  0.83802  1.0000
  O   O24       1.0  0.86350  0.98199  0.83807  1.0000
  O   O25       1.0  0.38739  0.48194  0.33801  1.0000
  O   O26       1.0  0.38742  0.98194  0.33799  1.0000
  O   O27       1.0  0.88731  0.48199  0.33805  1.0000
  O   O28       1.0  0.88730  0.98199  0.33805  1.0000
  O   O29       1.0  0.11361  0.01889  0.66281  1.0000
  O   O30       1.0  0.11360  0.51890  0.66285  1.0000
  O   O31       1.0  0.61352  0.01897  0.66293  1.0000
  O   O32       1.0  0.61357  0.51891  0.66293  1.0000
  O   O33       1.0  0.38859  0.37535  0.55888  1.0000
  O   O34       1.0  0.38870  0.87530  0.55886  1.0000
  O   O35       1.0  0.88871  0.37540  0.55887  1.0000
  O   O36       1.0  0.88865  0.87543  0.55887  1.0000
  O   O37       1.0  0.11238  0.12545  0.44198  1.0000
  O   O38       1.0  0.11238  0.62545  0.44202  1.0000
  O   O39       1.0  0.61238  0.12540  0.44203  1.0000
  O   O40       1.0  0.61244  0.62533  0.44207  1.0000
  O   O41       1.0  0.13871  0.12541  0.94202  1.0000
  O   O42       1.0  0.13878  0.62539  0.94204  1.0000
  O   O43       1.0  0.63867  0.12545  0.94201  1.0000
  O   O44       1.0  0.63867  0.62549  0.94197  1.0000
  O   O45       1.0  0.36233  0.37545  0.05886  1.0000
  O   O46       1.0  0.36229  0.87541  0.05885  1.0000
  O   O47       1.0  0.86222  0.37550  0.05893  1.0000
  O   O48       1.0  0.86240  0.87537  0.05895  1.0000
  O   O49       1.0  0.11512  0.37541  0.90886  1.0000
  O   O50       1.0  0.11514  0.87549  0.90881  1.0000
  O   O51       1.0  0.61513  0.37548  0.90884  1.0000
  O   O52       1.0  0.61516  0.87540  0.90891  1.0000
  O   O53       1.0  0.38583  0.12554  0.09210  1.0000
  O   O54       1.0  0.38585  0.62546  0.09218  1.0000
  O   O55       1.0  0.88579  0.12540  0.09213  1.0000
  O   O56       1.0  0.88583  0.62546  0.09211  1.0000
  O   O57       1.0  0.36520  0.12544  0.59207  1.0000
  O   O58       1.0  0.36522  0.62534  0.59204  1.0000
  O   O59       1.0  0.86527  0.12545  0.59213  1.0000
  O   O60       1.0  0.86528  0.62542  0.59208  1.0000
  O   O61       1.0  0.13576  0.37541  0.40871  1.0000
  O   O62       1.0  0.13572  0.87546  0.40873  1.0000
  O   O63       1.0  0.63577  0.37546  0.40885  1.0000
  O   O64       1.0  0.63583  0.87544  0.40885  1.0000
