data_image0
_chemical_formula_structural       Cs16Ti16Al16O64
_chemical_formula_sum              "Cs16 Ti16 Al16 O64"
_cell_length_a       11.5287
_cell_length_b       17.8785
_cell_length_c       10.008
_cell_angle_alpha    89.9998
_cell_angle_beta     89.9993
_cell_angle_gamma    89.9934

_space_group_name_H-M_alt    "P 1"
_space_group_IT_number       1

loop_
  _space_group_symop_operation_xyz
  'x, y, z'

loop_
  _atom_site_type_symbol
  _atom_site_label
  _atom_site_symmetry_multiplicity
  _atom_site_fract_x
  _atom_site_fract_y
  _atom_site_fract_z
  _atom_site_occupancy
  Cs  Cs1       1.0  0.25040  0.00028  0.45762  1.0000
  Cs  Cs2       1.0  0.75044  0.00027  0.45763  1.0000
  Cs  Cs3       1.0  0.25046  0.50025  0.45767  1.0000
  Cs  Cs4       1.0  0.50045  0.25027  0.95762  1.0000
  Cs  Cs5       1.0  0.75050  0.50026  0.45766  1.0000
  Cs  Cs6       1.0  0.00042  0.25026  0.95767  1.0000
  Cs  Cs7       1.0  0.50047  0.75028  0.95763  1.0000
  Cs  Cs8       1.0  0.00047  0.75026  0.95766  1.0000
  Cs  Cs9       1.0  0.00044  0.00029  0.05458  1.0000
  Cs  Cs10      1.0  0.50040  0.00026  0.05456  1.0000
  Cs  Cs11      1.0  0.00046  0.50030  0.05452  1.0000
  Cs  Cs12      1.0  0.25046  0.25028  0.55453  1.0000
  Cs  Cs13      1.0  0.50047  0.50027  0.05453  1.0000
  Cs  Cs14      1.0  0.75042  0.25030  0.55460  1.0000
  Cs  Cs15      1.0  0.25046  0.75027  0.55461  1.0000
  Cs  Cs16      1.0  0.75046  0.75027  0.55454  1.0000
  Ti  Ti1       1.0  0.25048  0.14782  0.16992  1.0000
  Ti  Ti2       1.0  0.75041  0.14785  0.16996  1.0000
  Ti  Ti3       1.0  0.25041  0.64784  0.16994  1.0000
  Ti  Ti4       1.0  0.50039  0.39783  0.66990  1.0000
  Ti  Ti5       1.0  0.75035  0.64785  0.17004  1.0000
  Ti  Ti6       1.0  0.00038  0.39783  0.66987  1.0000
  Ti  Ti7       1.0  0.50051  0.89785  0.66987  1.0000
  Ti  Ti8       1.0  0.00044  0.89783  0.66994  1.0000
  Ti  Ti9       1.0  0.00042  0.10270  0.66996  1.0000
  Ti  Ti10      1.0  0.50038  0.10271  0.66994  1.0000
  Ti  Ti11      1.0  0.00050  0.60271  0.66998  1.0000
  Ti  Ti12      1.0  0.25041  0.35266  0.17000  1.0000
  Ti  Ti13      1.0  0.50039  0.60268  0.66991  1.0000
  Ti  Ti14      1.0  0.75045  0.35265  0.17003  1.0000
  Ti  Ti15      1.0  0.25039  0.85269  0.17005  1.0000
  Ti  Ti16      1.0  0.75046  0.85270  0.17006  1.0000
  Al  Al1       1.0  0.00044  0.15624  0.32951  1.0000
  Al  Al2       1.0  0.50044  0.15625  0.32954  1.0000
  Al  Al3       1.0  0.00038  0.65622  0.32952  1.0000
  Al  Al4       1.0  0.25044  0.40626  0.82956  1.0000
  Al  Al5       1.0  0.50036  0.65621  0.32957  1.0000
  Al  Al6       1.0  0.75041  0.40622  0.82962  1.0000
  Al  Al7       1.0  0.25044  0.90627  0.82956  1.0000
  Al  Al8       1.0  0.75046  0.90625  0.82961  1.0000
  Al  Al9       1.0  0.25043  0.09432  0.82954  1.0000
  Al  Al10      1.0  0.75044  0.09432  0.82954  1.0000
  Al  Al11      1.0  0.25047  0.59430  0.82960  1.0000
  Al  Al12      1.0  0.50050  0.34430  0.32943  1.0000
  Al  Al13      1.0  0.75038  0.59430  0.82952  1.0000
  Al  Al14      1.0  0.00039  0.34431  0.32947  1.0000
  Al  Al15      1.0  0.50044  0.84426  0.32947  1.0000
  Al  Al16      1.0  0.00043  0.84426  0.32950  1.0000
  O   O1        1.0  0.12343  0.88735  0.25708  1.0000
  O   O2        1.0  0.62352  0.88738  0.25718  1.0000
  O   O3        1.0  0.12344  0.38735  0.25701  1.0000
  O   O4        1.0  0.37344  0.13730  0.75709  1.0000
  O   O5        1.0  0.62358  0.38735  0.25711  1.0000
  O   O6        1.0  0.87345  0.13735  0.75705  1.0000
  O   O7        1.0  0.37358  0.63724  0.75725  1.0000
  O   O8        1.0  0.87358  0.63729  0.75723  1.0000
  O   O9        1.0  0.12743  0.13729  0.75696  1.0000
  O   O10       1.0  0.62740  0.13726  0.75693  1.0000
  O   O11       1.0  0.12753  0.63734  0.75693  1.0000
  O   O12       1.0  0.37739  0.38735  0.25700  1.0000
  O   O13       1.0  0.62733  0.63732  0.75695  1.0000
  O   O14       1.0  0.87737  0.38734  0.25701  1.0000
  O   O15       1.0  0.37728  0.88735  0.25725  1.0000
  O   O16       1.0  0.87739  0.88732  0.25712  1.0000
  O   O17       1.0  0.12352  0.11323  0.25699  1.0000
  O   O18       1.0  0.62351  0.11327  0.25709  1.0000
  O   O19       1.0  0.12357  0.61330  0.25727  1.0000
  O   O20       1.0  0.37352  0.36319  0.75713  1.0000
  O   O21       1.0  0.62345  0.61322  0.25720  1.0000
  O   O22       1.0  0.87348  0.36324  0.75708  1.0000
  O   O23       1.0  0.37347  0.86327  0.75689  1.0000
  O   O24       1.0  0.87347  0.86325  0.75700  1.0000
  O   O25       1.0  0.12737  0.36332  0.75699  1.0000
  O   O26       1.0  0.62737  0.36328  0.75699  1.0000
  O   O27       1.0  0.12733  0.86322  0.75723  1.0000
  O   O28       1.0  0.37747  0.61323  0.25677  1.0000
  O   O29       1.0  0.62749  0.86323  0.75695  1.0000
  O   O30       1.0  0.87742  0.61320  0.25692  1.0000
  O   O31       1.0  0.37735  0.11323  0.25719  1.0000
  O   O32       1.0  0.87730  0.11325  0.25718  1.0000
  O   O33       1.0  0.00044  0.13665  0.50137  1.0000
  O   O34       1.0  0.50049  0.13665  0.50134  1.0000
  O   O35       1.0  0.00014  0.63667  0.50138  1.0000
  O   O36       1.0  0.25042  0.38661  0.00140  1.0000
  O   O37       1.0  0.50018  0.63678  0.50141  1.0000
  O   O38       1.0  0.75037  0.38653  0.00140  1.0000
  O   O39       1.0  0.25043  0.88658  0.00140  1.0000
  O   O40       1.0  0.75059  0.88661  0.00144  1.0000
  O   O41       1.0  0.25044  0.11393  0.00131  1.0000
  O   O42       1.0  0.75042  0.11393  0.00135  1.0000
  O   O43       1.0  0.25023  0.61389  0.00137  1.0000
  O   O44       1.0  0.50045  0.36383  0.50133  1.0000
  O   O45       1.0  0.75008  0.61396  0.00138  1.0000
  O   O46       1.0  0.00039  0.36376  0.50135  1.0000
  O   O47       1.0  0.50049  0.86377  0.50137  1.0000
  O   O48       1.0  0.00043  0.86388  0.50134  1.0000
  O   O49       1.0  0.00043  0.25028  0.30057  1.0000
  O   O50       1.0  0.50042  0.25027  0.30034  1.0000
  O   O51       1.0  0.00046  0.75024  0.30049  1.0000
  O   O52       1.0  0.25036  0.50028  0.80065  1.0000
  O   O53       1.0  0.50042  0.75023  0.30049  1.0000
  O   O54       1.0  0.75047  0.50025  0.80060  1.0000
  O   O55       1.0  0.25050  0.00030  0.80061  1.0000
  O   O56       1.0  0.75039  0.00028  0.80070  1.0000
  O   O57       1.0  0.00045  0.00028  0.66382  1.0000
  O   O58       1.0  0.50042  0.00030  0.66381  1.0000
  O   O59       1.0  0.00041  0.50028  0.66394  1.0000
  O   O60       1.0  0.25041  0.25023  0.16407  1.0000
  O   O61       1.0  0.50045  0.50026  0.66377  1.0000
  O   O62       1.0  0.75037  0.25025  0.16410  1.0000
  O   O63       1.0  0.25039  0.75027  0.16403  1.0000
  O   O64       1.0  0.75047  0.75028  0.16409  1.0000
