data_image0
_chemical_formula_structural       K8Ba16Nb24O72
_chemical_formula_sum              "K8 Ba16 Nb24 O72"
_cell_length_a       11.5968
_cell_length_b       10.036
_cell_length_c       14.2097
_cell_angle_alpha    90.0678
_cell_angle_beta     90.0004
_cell_angle_gamma    89.9995

_space_group_name_H-M_alt    "P 1"
_space_group_IT_number       1

loop_
  _space_group_symop_operation_xyz
  'x, y, z'

loop_
  _atom_site_type_symbol
  _atom_site_label
  _atom_site_symmetry_multiplicity
  _atom_site_fract_x
  _atom_site_fract_y
  _atom_site_fract_z
  _atom_site_occupancy
  K   K1        1.0  0.00043  0.00060  0.00047  1.0000
  K   K2        1.0  0.00022  0.00077  0.50040  1.0000
  K   K3        1.0  0.25042  0.50034  0.00055  1.0000
  K   K4        1.0  0.25051  0.50043  0.50023  1.0000
  K   K5        1.0  0.50052  0.00042  0.00031  1.0000
  K   K6        1.0  0.50031  0.00062  0.50050  1.0000
  K   K7        1.0  0.75047  0.50049  0.00051  1.0000
  K   K8        1.0  0.75041  0.50066  0.50039  1.0000
  Ba  Ba1       1.0  0.25033  0.83371  0.16482  1.0000
  Ba  Ba2       1.0  0.25040  0.83387  0.66481  1.0000
  Ba  Ba3       1.0  0.50042  0.33375  0.16490  1.0000
  Ba  Ba4       1.0  0.50042  0.33378  0.66495  1.0000
  Ba  Ba5       1.0  0.75034  0.83375  0.16480  1.0000
  Ba  Ba6       1.0  0.75035  0.83382  0.66482  1.0000
  Ba  Ba7       1.0  0.00039  0.33370  0.16494  1.0000
  Ba  Ba8       1.0  0.00051  0.33384  0.66487  1.0000
  Ba  Ba9       1.0  0.25039  0.16719  0.33595  1.0000
  Ba  Ba10      1.0  0.25045  0.16723  0.83592  1.0000
  Ba  Ba11      1.0  0.50035  0.66723  0.33590  1.0000
  Ba  Ba12      1.0  0.50048  0.66724  0.83587  1.0000
  Ba  Ba13      1.0  0.75036  0.16726  0.33596  1.0000
  Ba  Ba14      1.0  0.75046  0.16735  0.83599  1.0000
  Ba  Ba15      1.0  0.00042  0.66729  0.33586  1.0000
  Ba  Ba16      1.0  0.00048  0.66728  0.83581  1.0000
  Nb  Nb1       1.0  0.00032  0.00044  0.25040  1.0000
  Nb  Nb2       1.0  0.00036  0.00057  0.75037  1.0000
  Nb  Nb3       1.0  0.25036  0.50046  0.25038  1.0000
  Nb  Nb4       1.0  0.25038  0.50053  0.75039  1.0000
  Nb  Nb5       1.0  0.50032  0.00046  0.25043  1.0000
  Nb  Nb6       1.0  0.50042  0.00055  0.75043  1.0000
  Nb  Nb7       1.0  0.75043  0.50058  0.25037  1.0000
  Nb  Nb8       1.0  0.75041  0.50053  0.75044  1.0000
  Nb  Nb9       1.0  0.25033  0.83374  0.41853  1.0000
  Nb  Nb10      1.0  0.25035  0.83384  0.91852  1.0000
  Nb  Nb11      1.0  0.50038  0.33386  0.41858  1.0000
  Nb  Nb12      1.0  0.50033  0.33383  0.91861  1.0000
  Nb  Nb13      1.0  0.75035  0.83389  0.41857  1.0000
  Nb  Nb14      1.0  0.75047  0.83387  0.91857  1.0000
  Nb  Nb15      1.0  0.00038  0.33381  0.41858  1.0000
  Nb  Nb16      1.0  0.00042  0.33377  0.91857  1.0000
  Nb  Nb17      1.0  0.25034  0.16719  0.08221  1.0000
  Nb  Nb18      1.0  0.25037  0.16717  0.58221  1.0000
  Nb  Nb19      1.0  0.50037  0.66723  0.08214  1.0000
  Nb  Nb20      1.0  0.50035  0.66718  0.58221  1.0000
  Nb  Nb21      1.0  0.75035  0.16722  0.08225  1.0000
  Nb  Nb22      1.0  0.75032  0.16734  0.58229  1.0000
  Nb  Nb23      1.0  0.00038  0.66717  0.08213  1.0000
  Nb  Nb24      1.0  0.00032  0.66721  0.58216  1.0000
  O   O1        1.0  0.37441  0.08446  0.16837  1.0000
  O   O2        1.0  0.37454  0.08443  0.66822  1.0000
  O   O3        1.0  0.62460  0.58449  0.16815  1.0000
  O   O4        1.0  0.62445  0.58445  0.66835  1.0000
  O   O5        1.0  0.87432  0.08442  0.16838  1.0000
  O   O6        1.0  0.87446  0.08464  0.66838  1.0000
  O   O7        1.0  0.12455  0.58453  0.16817  1.0000
  O   O8        1.0  0.12446  0.58439  0.66818  1.0000
  O   O9        1.0  0.12624  0.91644  0.33243  1.0000
  O   O10       1.0  0.12619  0.91664  0.83249  1.0000
  O   O11       1.0  0.37617  0.41656  0.33251  1.0000
  O   O12       1.0  0.37616  0.41659  0.83255  1.0000
  O   O13       1.0  0.62617  0.91657  0.33255  1.0000
  O   O14       1.0  0.62625  0.91662  0.83256  1.0000
  O   O15       1.0  0.87621  0.41649  0.33254  1.0000
  O   O16       1.0  0.87622  0.41643  0.83253  1.0000
  O   O17       1.0  0.12547  0.25057  0.00035  1.0000
  O   O18       1.0  0.12534  0.25057  0.50044  1.0000
  O   O19       1.0  0.37540  0.75056  0.00034  1.0000
  O   O20       1.0  0.37535  0.75043  0.50038  1.0000
  O   O21       1.0  0.62546  0.25061  0.00037  1.0000
  O   O22       1.0  0.62538  0.25067  0.50041  1.0000
  O   O23       1.0  0.87541  0.75054  0.00034  1.0000
  O   O24       1.0  0.87533  0.75048  0.50034  1.0000
  O   O25       1.0  0.37453  0.91640  0.33250  1.0000
  O   O26       1.0  0.37452  0.91651  0.83243  1.0000
  O   O27       1.0  0.62450  0.41673  0.33250  1.0000
  O   O28       1.0  0.62442  0.41663  0.83256  1.0000
  O   O29       1.0  0.87453  0.91660  0.33262  1.0000
  O   O30       1.0  0.87456  0.91669  0.83256  1.0000
  O   O31       1.0  0.12449  0.41649  0.33250  1.0000
  O   O32       1.0  0.12451  0.41659  0.83247  1.0000
  O   O33       1.0  0.12534  0.75059  0.00032  1.0000
  O   O34       1.0  0.12533  0.75046  0.50034  1.0000
  O   O35       1.0  0.37538  0.25050  0.00050  1.0000
  O   O36       1.0  0.37540  0.25046  0.50038  1.0000
  O   O37       1.0  0.62542  0.75039  0.00028  1.0000
  O   O38       1.0  0.62538  0.75034  0.50035  1.0000
  O   O39       1.0  0.87552  0.25039  0.00050  1.0000
  O   O40       1.0  0.87537  0.25061  0.50049  1.0000
  O   O41       1.0  0.12606  0.08443  0.16816  1.0000
  O   O42       1.0  0.12624  0.08448  0.66823  1.0000
  O   O43       1.0  0.37624  0.58454  0.16829  1.0000
  O   O44       1.0  0.37614  0.58451  0.66825  1.0000
  O   O45       1.0  0.62610  0.08457  0.16822  1.0000
  O   O46       1.0  0.62621  0.08461  0.66832  1.0000
  O   O47       1.0  0.87632  0.58439  0.16817  1.0000
  O   O48       1.0  0.87617  0.58446  0.66822  1.0000
  O   O49       1.0  0.25031  0.66822  0.33256  1.0000
  O   O50       1.0  0.25031  0.66846  0.83246  1.0000
  O   O51       1.0  0.50044  0.16827  0.33260  1.0000
  O   O52       1.0  0.50029  0.16833  0.83263  1.0000
  O   O53       1.0  0.75052  0.66843  0.33241  1.0000
  O   O54       1.0  0.75060  0.66837  0.83249  1.0000
  O   O55       1.0  0.00040  0.16822  0.33262  1.0000
  O   O56       1.0  0.00048  0.16840  0.83257  1.0000
  O   O57       1.0  0.25045  0.00052  0.00038  1.0000
  O   O58       1.0  0.25039  0.00045  0.50036  1.0000
  O   O59       1.0  0.50022  0.50052  0.00037  1.0000
  O   O60       1.0  0.50028  0.50042  0.50048  1.0000
  O   O61       1.0  0.75036  0.00046  0.00043  1.0000
  O   O62       1.0  0.75036  0.00054  0.50047  1.0000
  O   O63       1.0  0.00041  0.50058  0.00032  1.0000
  O   O64       1.0  0.00032  0.50056  0.50035  1.0000
  O   O65       1.0  0.25033  0.33260  0.16823  1.0000
  O   O66       1.0  0.25047  0.33262  0.66828  1.0000
  O   O67       1.0  0.50043  0.83268  0.16816  1.0000
  O   O68       1.0  0.50051  0.83268  0.66824  1.0000
  O   O69       1.0  0.75038  0.33269  0.16824  1.0000
  O   O70       1.0  0.75033  0.33277  0.66830  1.0000
  O   O71       1.0  0.00027  0.83270  0.16819  1.0000
  O   O72       1.0  0.00032  0.83279  0.66818  1.0000
