data_image0
_chemical_formula_structural       Mg16Ta16Bi16O80
_chemical_formula_sum              "Mg16 Ta16 Bi16 O80"
_cell_length_a       10.6666
_cell_length_b       15.2734
_cell_length_c       11.8173
_cell_angle_alpha    89.9999
_cell_angle_beta     89.9982
_cell_angle_gamma    86.1192

_space_group_name_H-M_alt    "P 1"
_space_group_IT_number       1

loop_
  _space_group_symop_operation_xyz
  'x, y, z'

loop_
  _atom_site_type_symbol
  _atom_site_label
  _atom_site_symmetry_multiplicity
  _atom_site_fract_x
  _atom_site_fract_y
  _atom_site_fract_z
  _atom_site_occupancy
  Mg  Mg1       1.0  0.26799  0.08480  0.92242  1.0000
  Mg  Mg2       1.0  0.76798  0.08482  0.92245  1.0000
  Mg  Mg3       1.0  0.51797  0.58485  0.92241  1.0000
  Mg  Mg4       1.0  0.01799  0.58482  0.92243  1.0000
  Mg  Mg5       1.0  0.98293  0.41583  0.07838  1.0000
  Mg  Mg6       1.0  0.48296  0.41584  0.07840  1.0000
  Mg  Mg7       1.0  0.23293  0.91583  0.07841  1.0000
  Mg  Mg8       1.0  0.73295  0.91581  0.07842  1.0000
  Mg  Mg9       1.0  0.35788  0.16581  0.42240  1.0000
  Mg  Mg10      1.0  0.85788  0.16581  0.42242  1.0000
  Mg  Mg11      1.0  0.60790  0.66581  0.42241  1.0000
  Mg  Mg12      1.0  0.10790  0.66579  0.42242  1.0000
  Mg  Mg13      1.0  0.89294  0.33479  0.57845  1.0000
  Mg  Mg14      1.0  0.39295  0.33480  0.57841  1.0000
  Mg  Mg15      1.0  0.14295  0.83480  0.57840  1.0000
  Mg  Mg16      1.0  0.64295  0.83481  0.57841  1.0000
  Ta  Ta1       1.0  0.15046  0.48454  0.64176  1.0000
  Ta  Ta2       1.0  0.65044  0.48457  0.64175  1.0000
  Ta  Ta3       1.0  0.40045  0.98452  0.64178  1.0000
  Ta  Ta4       1.0  0.90043  0.98457  0.64177  1.0000
  Ta  Ta5       1.0  0.10040  0.01608  0.35906  1.0000
  Ta  Ta6       1.0  0.60039  0.01604  0.35908  1.0000
  Ta  Ta7       1.0  0.35043  0.51606  0.35907  1.0000
  Ta  Ta8       1.0  0.85040  0.51603  0.35911  1.0000
  Ta  Ta9       1.0  0.22546  0.26608  0.14174  1.0000
  Ta  Ta10      1.0  0.72546  0.26608  0.14177  1.0000
  Ta  Ta11      1.0  0.47544  0.76604  0.14174  1.0000
  Ta  Ta12      1.0  0.97549  0.76606  0.14180  1.0000
  Ta  Ta13      1.0  0.02548  0.23455  0.85907  1.0000
  Ta  Ta14      1.0  0.52544  0.23457  0.85909  1.0000
  Ta  Ta15      1.0  0.27542  0.73458  0.85906  1.0000
  Ta  Ta16      1.0  0.77546  0.73458  0.85909  1.0000
  Bi  Bi1       1.0  0.01166  0.08343  0.09593  1.0000
  Bi  Bi2       1.0  0.51167  0.08339  0.09593  1.0000
  Bi  Bi3       1.0  0.26166  0.58339  0.09589  1.0000
  Bi  Bi4       1.0  0.76167  0.58340  0.09594  1.0000
  Bi  Bi5       1.0  0.23928  0.41721  0.90490  1.0000
  Bi  Bi6       1.0  0.73926  0.41725  0.90492  1.0000
  Bi  Bi7       1.0  0.48927  0.91720  0.90494  1.0000
  Bi  Bi8       1.0  0.98926  0.91724  0.90494  1.0000
  Bi  Bi9       1.0  0.13661  0.33341  0.40493  1.0000
  Bi  Bi10      1.0  0.63664  0.33339  0.40496  1.0000
  Bi  Bi11      1.0  0.38662  0.83338  0.40490  1.0000
  Bi  Bi12      1.0  0.88666  0.83341  0.40494  1.0000
  Bi  Bi13      1.0  0.11422  0.16721  0.59589  1.0000
  Bi  Bi14      1.0  0.61416  0.16720  0.59593  1.0000
  Bi  Bi15      1.0  0.36421  0.66722  0.59590  1.0000
  Bi  Bi16      1.0  0.86421  0.66722  0.59592  1.0000
  O   O1        1.0  0.19038  0.16423  0.06220  1.0000
  O   O2        1.0  0.69042  0.16420  0.06227  1.0000
  O   O3        1.0  0.44039  0.66419  0.06217  1.0000
  O   O4        1.0  0.94046  0.66419  0.06228  1.0000
  O   O5        1.0  0.92626  0.15947  0.94136  1.0000
  O   O6        1.0  0.42624  0.15947  0.94139  1.0000
  O   O7        1.0  0.17624  0.65949  0.94138  1.0000
  O   O8        1.0  0.67626  0.65952  0.94141  1.0000
  O   O9        1.0  0.07848  0.32754  0.17773  1.0000
  O   O10       1.0  0.57847  0.32752  0.17779  1.0000
  O   O11       1.0  0.32845  0.82748  0.17775  1.0000
  O   O12       1.0  0.82848  0.82749  0.17779  1.0000
  O   O13       1.0  0.24979  0.25788  0.52559  1.0000
  O   O14       1.0  0.74978  0.25785  0.52566  1.0000
  O   O15       1.0  0.49981  0.75787  0.52559  1.0000
  O   O16       1.0  0.99980  0.75787  0.52563  1.0000
  O   O17       1.0  0.28331  0.24035  0.28767  1.0000
  O   O18       1.0  0.78337  0.24037  0.28770  1.0000
  O   O19       1.0  0.53329  0.74028  0.28767  1.0000
  O   O20       1.0  0.03335  0.74035  0.28773  1.0000
  O   O21       1.0  0.90832  0.49031  0.21318  1.0000
  O   O22       1.0  0.40839  0.49036  0.21314  1.0000
  O   O23       1.0  0.15837  0.99037  0.21315  1.0000
  O   O24       1.0  0.65833  0.99033  0.21317  1.0000
  O   O25       1.0  0.05122  0.40946  0.55951  1.0000
  O   O26       1.0  0.55120  0.40948  0.55949  1.0000
  O   O27       1.0  0.30126  0.90941  0.55950  1.0000
  O   O28       1.0  0.80120  0.90949  0.55949  1.0000
  O   O29       1.0  0.19964  0.09114  0.44135  1.0000
  O   O30       1.0  0.69960  0.09114  0.44136  1.0000
  O   O31       1.0  0.44965  0.59112  0.44140  1.0000
  O   O32       1.0  0.94964  0.59111  0.44139  1.0000
  O   O33       1.0  0.00103  0.24274  0.47522  1.0000
  O   O34       1.0  0.50102  0.24273  0.47522  1.0000
  O   O35       1.0  0.25105  0.74273  0.47519  1.0000
  O   O36       1.0  0.75106  0.74275  0.47522  1.0000
  O   O37       1.0  0.43540  0.08641  0.56223  1.0000
  O   O38       1.0  0.93549  0.08641  0.56216  1.0000
  O   O39       1.0  0.68550  0.58643  0.56218  1.0000
  O   O40       1.0  0.18551  0.58639  0.56218  1.0000
  O   O41       1.0  0.96752  0.26025  0.71316  1.0000
  O   O42       1.0  0.46753  0.26027  0.71317  1.0000
  O   O43       1.0  0.21748  0.76028  0.71314  1.0000
  O   O44       1.0  0.71753  0.76026  0.71317  1.0000
  O   O45       1.0  0.06049  0.33644  0.93856  1.0000
  O   O46       1.0  0.56054  0.33643  0.93861  1.0000
  O   O47       1.0  0.31048  0.83645  0.93859  1.0000
  O   O48       1.0  0.81051  0.83645  0.93860  1.0000
  O   O49       1.0  0.81539  0.41417  0.43866  1.0000
  O   O50       1.0  0.31539  0.41418  0.43860  1.0000
  O   O51       1.0  0.06543  0.91419  0.43860  1.0000
  O   O52       1.0  0.56538  0.91417  0.43861  1.0000
  O   O53       1.0  0.34252  0.01022  0.78772  1.0000
  O   O54       1.0  0.84257  0.01031  0.78771  1.0000
  O   O55       1.0  0.59253  0.51033  0.78766  1.0000
  O   O56       1.0  0.09257  0.51029  0.78767  1.0000
  O   O57       1.0  0.12610  0.49273  0.02559  1.0000
  O   O58       1.0  0.62609  0.49277  0.02561  1.0000
  O   O59       1.0  0.37611  0.99273  0.02563  1.0000
  O   O60       1.0  0.87609  0.99275  0.02565  1.0000
  O   O61       1.0  0.12484  0.00790  0.97523  1.0000
  O   O62       1.0  0.62484  0.00787  0.97524  1.0000
  O   O63       1.0  0.37485  0.50788  0.97519  1.0000
  O   O64       1.0  0.87484  0.50790  0.97523  1.0000
  O   O65       1.0  0.17251  0.17315  0.82304  1.0000
  O   O66       1.0  0.67242  0.17312  0.82307  1.0000
  O   O67       1.0  0.42245  0.67318  0.82304  1.0000
  O   O68       1.0  0.92247  0.67315  0.82308  1.0000
  O   O69       1.0  0.32473  0.34112  0.05944  1.0000
  O   O70       1.0  0.82468  0.34114  0.05943  1.0000
  O   O71       1.0  0.57469  0.84111  0.05948  1.0000
  O   O72       1.0  0.07467  0.84114  0.05948  1.0000
  O   O73       1.0  0.79744  0.42316  0.67779  1.0000
  O   O74       1.0  0.29745  0.42311  0.67778  1.0000
  O   O75       1.0  0.04744  0.92313  0.67776  1.0000
  O   O76       1.0  0.54750  0.92315  0.67780  1.0000
  O   O77       1.0  0.45338  0.07746  0.32305  1.0000
  O   O78       1.0  0.95339  0.07750  0.32302  1.0000
  O   O79       1.0  0.70340  0.57745  0.32307  1.0000
  O   O80       1.0  0.20343  0.57749  0.32302  1.0000
