data_image0
_chemical_formula_structural       Y32Zr24O96
_chemical_formula_sum              "Y32 Zr24 O96"
_cell_length_a       12.6478
_cell_length_b       12.7376
_cell_length_c       13.0834
_cell_angle_alpha    99.8373
_cell_angle_beta     98.5033
_cell_angle_gamma    99.6222

_space_group_name_H-M_alt    "P 1"
_space_group_IT_number       1

loop_
  _space_group_symop_operation_xyz
  'x, y, z'

loop_
  _atom_site_type_symbol
  _atom_site_label
  _atom_site_symmetry_multiplicity
  _atom_site_fract_x
  _atom_site_fract_y
  _atom_site_fract_z
  _atom_site_occupancy
  Y   Y1        1.0  0.34902  0.43303  0.19577  1.0000
  Y   Y2        1.0  0.34899  0.43309  0.69577  1.0000
  Y   Y3        1.0  0.34899  0.93309  0.19582  1.0000
  Y   Y4        1.0  0.34897  0.93308  0.69573  1.0000
  Y   Y5        1.0  0.84903  0.43307  0.19575  1.0000
  Y   Y6        1.0  0.84896  0.43306  0.69579  1.0000
  Y   Y7        1.0  0.84903  0.93311  0.19586  1.0000
  Y   Y8        1.0  0.84897  0.93300  0.69575  1.0000
  Y   Y9        1.0  0.19447  0.35027  0.43329  1.0000
  Y   Y10       1.0  0.19444  0.35017  0.93332  1.0000
  Y   Y11       1.0  0.19446  0.85022  0.43336  1.0000
  Y   Y12       1.0  0.19441  0.85023  0.93334  1.0000
  Y   Y13       1.0  0.69452  0.35024  0.43335  1.0000
  Y   Y14       1.0  0.69441  0.35018  0.93331  1.0000
  Y   Y15       1.0  0.69444  0.85025  0.43335  1.0000
  Y   Y16       1.0  0.69444  0.85027  0.93338  1.0000
  Y   Y17       1.0  0.15209  0.06789  0.30511  1.0000
  Y   Y18       1.0  0.15202  0.06785  0.80506  1.0000
  Y   Y19       1.0  0.15206  0.56786  0.30498  1.0000
  Y   Y20       1.0  0.15204  0.56788  0.80506  1.0000
  Y   Y21       1.0  0.65208  0.06791  0.30506  1.0000
  Y   Y22       1.0  0.65208  0.06789  0.80506  1.0000
  Y   Y23       1.0  0.65205  0.56788  0.30500  1.0000
  Y   Y24       1.0  0.65201  0.56787  0.80511  1.0000
  Y   Y25       1.0  0.30663  0.15070  0.06752  1.0000
  Y   Y26       1.0  0.30659  0.15078  0.56749  1.0000
  Y   Y27       1.0  0.30656  0.65070  0.06747  1.0000
  Y   Y28       1.0  0.30661  0.65067  0.56745  1.0000
  Y   Y29       1.0  0.80660  0.15072  0.06755  1.0000
  Y   Y30       1.0  0.80661  0.15070  0.56749  1.0000
  Y   Y31       1.0  0.80657  0.65070  0.06751  1.0000
  Y   Y32       1.0  0.80657  0.65070  0.56746  1.0000
  Zr  Zr1       1.0  0.00051  0.00047  0.00044  1.0000
  Zr  Zr2       1.0  0.00055  0.00049  0.50042  1.0000
  Zr  Zr3       1.0  0.00050  0.50046  0.00037  1.0000
  Zr  Zr4       1.0  0.00053  0.50052  0.50037  1.0000
  Zr  Zr5       1.0  0.50048  0.00046  0.00037  1.0000
  Zr  Zr6       1.0  0.50054  0.00046  0.50046  1.0000
  Zr  Zr7       1.0  0.50047  0.50047  0.00040  1.0000
  Zr  Zr8       1.0  0.50058  0.50047  0.50043  1.0000
  Zr  Zr9       1.0  0.42508  0.19916  0.33591  1.0000
  Zr  Zr10      1.0  0.42500  0.19916  0.83578  1.0000
  Zr  Zr11      1.0  0.42505  0.69915  0.33586  1.0000
  Zr  Zr12      1.0  0.42501  0.69917  0.83579  1.0000
  Zr  Zr13      1.0  0.92511  0.19917  0.33593  1.0000
  Zr  Zr14      1.0  0.92502  0.19908  0.83589  1.0000
  Zr  Zr15      1.0  0.92501  0.69913  0.33587  1.0000
  Zr  Zr16      1.0  0.92498  0.69913  0.83582  1.0000
  Zr  Zr17      1.0  0.07603  0.30177  0.16493  1.0000
  Zr  Zr18      1.0  0.07599  0.30183  0.66498  1.0000
  Zr  Zr19      1.0  0.07601  0.80180  0.16502  1.0000
  Zr  Zr20      1.0  0.07602  0.80178  0.66499  1.0000
  Zr  Zr21      1.0  0.57607  0.30177  0.16502  1.0000
  Zr  Zr22      1.0  0.57601  0.30180  0.66493  1.0000
  Zr  Zr23      1.0  0.57603  0.80181  0.16498  1.0000
  Zr  Zr24      1.0  0.57604  0.80181  0.66501  1.0000
  O   O1        1.0  0.29369  0.20904  0.41075  1.0000
  O   O2        1.0  0.29365  0.20896  0.91071  1.0000
  O   O3        1.0  0.29365  0.70892  0.41073  1.0000
  O   O4        1.0  0.29365  0.70896  0.91071  1.0000
  O   O5        1.0  0.79371  0.20904  0.41078  1.0000
  O   O6        1.0  0.79363  0.20894  0.91073  1.0000
  O   O7        1.0  0.79363  0.70903  0.41072  1.0000
  O   O8        1.0  0.79361  0.70892  0.91074  1.0000
  O   O9        1.0  0.41497  0.28546  0.21331  1.0000
  O   O10       1.0  0.41486  0.28549  0.71319  1.0000
  O   O11       1.0  0.41491  0.78553  0.21332  1.0000
  O   O12       1.0  0.41490  0.78548  0.71319  1.0000
  O   O13       1.0  0.91492  0.28545  0.21329  1.0000
  O   O14       1.0  0.91491  0.28547  0.71328  1.0000
  O   O15       1.0  0.91487  0.78547  0.21326  1.0000
  O   O16       1.0  0.91484  0.78540  0.71320  1.0000
  O   O17       1.0  0.20593  0.40620  0.28295  1.0000
  O   O18       1.0  0.20594  0.40620  0.78302  1.0000
  O   O19       1.0  0.20598  0.90621  0.28304  1.0000
  O   O20       1.0  0.20598  0.90624  0.78302  1.0000
  O   O21       1.0  0.70599  0.40623  0.28301  1.0000
  O   O22       1.0  0.70596  0.40623  0.78303  1.0000
  O   O23       1.0  0.70596  0.90625  0.28303  1.0000
  O   O24       1.0  0.70598  0.90623  0.78305  1.0000
  O   O25       1.0  0.20745  0.29192  0.09009  1.0000
  O   O26       1.0  0.20741  0.29209  0.59008  1.0000
  O   O27       1.0  0.20741  0.79194  0.09013  1.0000
  O   O28       1.0  0.20738  0.79194  0.59010  1.0000
  O   O29       1.0  0.70744  0.29197  0.09012  1.0000
  O   O30       1.0  0.70742  0.29193  0.59013  1.0000
  O   O31       1.0  0.70739  0.79197  0.09011  1.0000
  O   O32       1.0  0.70742  0.79202  0.59013  1.0000
  O   O33       1.0  0.08622  0.21548  0.28755  1.0000
  O   O34       1.0  0.08614  0.21542  0.78755  1.0000
  O   O35       1.0  0.08615  0.71545  0.28760  1.0000
  O   O36       1.0  0.08616  0.71550  0.78761  1.0000
  O   O37       1.0  0.58623  0.21553  0.28763  1.0000
  O   O38       1.0  0.58615  0.21548  0.78754  1.0000
  O   O39       1.0  0.58617  0.71552  0.28762  1.0000
  O   O40       1.0  0.58617  0.71554  0.78762  1.0000
  O   O41       1.0  0.29512  0.09474  0.21786  1.0000
  O   O42       1.0  0.29503  0.09474  0.71777  1.0000
  O   O43       1.0  0.29513  0.59469  0.21781  1.0000
  O   O44       1.0  0.29507  0.59473  0.71778  1.0000
  O   O45       1.0  0.79516  0.09478  0.21791  1.0000
  O   O46       1.0  0.79515  0.09473  0.71785  1.0000
  O   O47       1.0  0.79511  0.59471  0.21783  1.0000
  O   O48       1.0  0.79503  0.59470  0.71780  1.0000
  O   O49       1.0  0.01228  0.33984  0.44215  1.0000
  O   O50       1.0  0.01225  0.33974  0.94215  1.0000
  O   O51       1.0  0.01225  0.83984  0.44203  1.0000
  O   O52       1.0  0.01218  0.83973  0.94220  1.0000
  O   O53       1.0  0.51236  0.33970  0.44238  1.0000
  O   O54       1.0  0.51217  0.33980  0.94209  1.0000
  O   O55       1.0  0.51224  0.83970  0.44233  1.0000
  O   O56       1.0  0.51223  0.83976  0.94213  1.0000
  O   O57       1.0  0.46119  0.04382  0.34799  1.0000
  O   O58       1.0  0.46118  0.04383  0.84795  1.0000
  O   O59       1.0  0.46116  0.54377  0.34798  1.0000
  O   O60       1.0  0.46118  0.54382  0.84795  1.0000
  O   O61       1.0  0.96126  0.04379  0.34794  1.0000
  O   O62       1.0  0.96112  0.04369  0.84795  1.0000
  O   O63       1.0  0.96113  0.54378  0.34794  1.0000
  O   O64       1.0  0.96116  0.54380  0.84791  1.0000
  O   O65       1.0  0.34355  0.46710  0.03004  1.0000
  O   O66       1.0  0.34360  0.46718  0.53002  1.0000
  O   O67       1.0  0.34353  0.96715  0.03010  1.0000
  O   O68       1.0  0.34359  0.96709  0.53011  1.0000
  O   O69       1.0  0.84355  0.46711  0.03003  1.0000
  O   O70       1.0  0.84357  0.46718  0.53008  1.0000
  O   O71       1.0  0.84356  0.96720  0.03021  1.0000
  O   O72       1.0  0.84357  0.96722  0.53006  1.0000
  O   O73       1.0  0.48883  0.16119  0.05864  1.0000
  O   O74       1.0  0.48877  0.16115  0.55865  1.0000
  O   O75       1.0  0.48876  0.66118  0.05867  1.0000
  O   O76       1.0  0.48889  0.66114  0.55874  1.0000
  O   O77       1.0  0.98876  0.16124  0.05844  1.0000
  O   O78       1.0  0.98886  0.16128  0.55849  1.0000
  O   O79       1.0  0.98882  0.66117  0.05868  1.0000
  O   O80       1.0  0.98878  0.66126  0.55851  1.0000
  O   O81       1.0  0.03990  0.45712  0.15279  1.0000
  O   O82       1.0  0.03995  0.45719  0.65280  1.0000
  O   O83       1.0  0.03998  0.95717  0.15286  1.0000
  O   O84       1.0  0.03987  0.95710  0.65283  1.0000
  O   O85       1.0  0.53990  0.45708  0.15282  1.0000
  O   O86       1.0  0.53996  0.45717  0.65285  1.0000
  O   O87       1.0  0.53995  0.95714  0.15281  1.0000
  O   O88       1.0  0.54002  0.95722  0.65287  1.0000
  O   O89       1.0  0.15755  0.03385  0.47084  1.0000
  O   O90       1.0  0.15747  0.03380  0.97076  1.0000
  O   O91       1.0  0.15750  0.53381  0.47070  1.0000
  O   O92       1.0  0.15747  0.53380  0.97078  1.0000
  O   O93       1.0  0.65748  0.03381  0.47075  1.0000
  O   O94       1.0  0.65750  0.03380  0.97082  1.0000
  O   O95       1.0  0.65751  0.53381  0.47068  1.0000
  O   O96       1.0  0.65746  0.53379  0.97083  1.0000
