data_image0
_chemical_formula_structural       Sr32Ca32O64
_chemical_formula_sum              "Sr32 Ca32 O64"
_cell_length_a       14.1635
_cell_length_b       14.1635
_cell_length_c       10.0045
_cell_angle_alpha    90
_cell_angle_beta     90
_cell_angle_gamma    89.9997

_space_group_name_H-M_alt    "P 1"
_space_group_IT_number       1

loop_
  _space_group_symop_operation_xyz
  'x, y, z'

loop_
  _atom_site_type_symbol
  _atom_site_label
  _atom_site_symmetry_multiplicity
  _atom_site_fract_x
  _atom_site_fract_y
  _atom_site_fract_z
  _atom_site_occupancy
  Sr  Sr1       1.0  0.12526  0.12533  0.00056  1.0000
  Sr  Sr2       1.0  0.12526  0.12544  0.50042  1.0000
  Sr  Sr3       1.0  0.12537  0.37534  0.00050  1.0000
  Sr  Sr4       1.0  0.12528  0.37538  0.50049  1.0000
  Sr  Sr5       1.0  0.12528  0.62539  0.00042  1.0000
  Sr  Sr6       1.0  0.12527  0.62535  0.50064  1.0000
  Sr  Sr7       1.0  0.12532  0.87541  0.00064  1.0000
  Sr  Sr8       1.0  0.12525  0.87530  0.50039  1.0000
  Sr  Sr9       1.0  0.37533  0.12533  0.00026  1.0000
  Sr  Sr10      1.0  0.37523  0.12538  0.50048  1.0000
  Sr  Sr11      1.0  0.37534  0.37534  0.00051  1.0000
  Sr  Sr12      1.0  0.37526  0.37544  0.50043  1.0000
  Sr  Sr13      1.0  0.37526  0.62534  0.00041  1.0000
  Sr  Sr14      1.0  0.37532  0.62538  0.50046  1.0000
  Sr  Sr15      1.0  0.37540  0.87537  0.00040  1.0000
  Sr  Sr16      1.0  0.37526  0.87529  0.50033  1.0000
  Sr  Sr17      1.0  0.62536  0.12528  0.00057  1.0000
  Sr  Sr18      1.0  0.62519  0.12526  0.50050  1.0000
  Sr  Sr19      1.0  0.62533  0.37538  0.00068  1.0000
  Sr  Sr20      1.0  0.62529  0.37538  0.50061  1.0000
  Sr  Sr21      1.0  0.62534  0.62535  0.00038  1.0000
  Sr  Sr22      1.0  0.62541  0.62535  0.50038  1.0000
  Sr  Sr23      1.0  0.62536  0.87536  0.00048  1.0000
  Sr  Sr24      1.0  0.62526  0.87527  0.50054  1.0000
  Sr  Sr25      1.0  0.87536  0.12538  0.00057  1.0000
  Sr  Sr26      1.0  0.87524  0.12540  0.50067  1.0000
  Sr  Sr27      1.0  0.87536  0.37536  0.00052  1.0000
  Sr  Sr28      1.0  0.87520  0.37539  0.50063  1.0000
  Sr  Sr29      1.0  0.87531  0.62537  0.00052  1.0000
  Sr  Sr30      1.0  0.87545  0.62542  0.50050  1.0000
  Sr  Sr31      1.0  0.87535  0.87543  0.00041  1.0000
  Sr  Sr32      1.0  0.87535  0.87537  0.50057  1.0000
  Ca  Ca1       1.0  0.00026  0.00024  0.25063  1.0000
  Ca  Ca2       1.0  0.00022  0.00049  0.75037  1.0000
  Ca  Ca3       1.0  0.00032  0.25047  0.25054  1.0000
  Ca  Ca4       1.0  0.00051  0.25053  0.75051  1.0000
  Ca  Ca5       1.0  0.00031  0.50033  0.25040  1.0000
  Ca  Ca6       1.0  0.00038  0.50050  0.75051  1.0000
  Ca  Ca7       1.0  0.00030  0.75036  0.25061  1.0000
  Ca  Ca8       1.0  0.00039  0.75051  0.75055  1.0000
  Ca  Ca9       1.0  0.25028  0.00048  0.25045  1.0000
  Ca  Ca10      1.0  0.25026  0.00032  0.75034  1.0000
  Ca  Ca11      1.0  0.25037  0.25036  0.25035  1.0000
  Ca  Ca12      1.0  0.25042  0.25053  0.75032  1.0000
  Ca  Ca13      1.0  0.25012  0.50042  0.25042  1.0000
  Ca  Ca14      1.0  0.25036  0.50050  0.75048  1.0000
  Ca  Ca15      1.0  0.25024  0.75029  0.25031  1.0000
  Ca  Ca16      1.0  0.25030  0.75045  0.75028  1.0000
  Ca  Ca17      1.0  0.50028  0.00028  0.25055  1.0000
  Ca  Ca18      1.0  0.50043  0.00029  0.75036  1.0000
  Ca  Ca19      1.0  0.50027  0.25019  0.25041  1.0000
  Ca  Ca20      1.0  0.50045  0.25031  0.75040  1.0000
  Ca  Ca21      1.0  0.50026  0.50036  0.25060  1.0000
  Ca  Ca22      1.0  0.50040  0.50035  0.75038  1.0000
  Ca  Ca23      1.0  0.50042  0.75019  0.25021  1.0000
  Ca  Ca24      1.0  0.50029  0.75030  0.75038  1.0000
  Ca  Ca25      1.0  0.75050  0.00030  0.25061  1.0000
  Ca  Ca26      1.0  0.75025  0.00039  0.75023  1.0000
  Ca  Ca27      1.0  0.75027  0.25030  0.25058  1.0000
  Ca  Ca28      1.0  0.75032  0.25033  0.75061  1.0000
  Ca  Ca29      1.0  0.75027  0.50029  0.25047  1.0000
  Ca  Ca30      1.0  0.75032  0.50035  0.75041  1.0000
  Ca  Ca31      1.0  0.75042  0.75056  0.25028  1.0000
  Ca  Ca32      1.0  0.75039  0.75032  0.75036  1.0000
  O   O1        1.0  0.00027  0.00038  0.00072  1.0000
  O   O2        1.0  0.00026  0.00038  0.50067  1.0000
  O   O3        1.0  0.00031  0.25035  0.00030  1.0000
  O   O4        1.0  0.00020  0.25045  0.50063  1.0000
  O   O5        1.0  0.00033  0.50039  0.00035  1.0000
  O   O6        1.0  0.00026  0.50036  0.50061  1.0000
  O   O7        1.0  0.00031  0.75042  0.00023  1.0000
  O   O8        1.0  0.00035  0.75038  0.50026  1.0000
  O   O9        1.0  0.25035  0.00034  0.00048  1.0000
  O   O10       1.0  0.25025  0.00035  0.50023  1.0000
  O   O11       1.0  0.25035  0.25031  0.00060  1.0000
  O   O12       1.0  0.25029  0.25042  0.50035  1.0000
  O   O13       1.0  0.25033  0.50037  0.00065  1.0000
  O   O14       1.0  0.25030  0.50041  0.50057  1.0000
  O   O15       1.0  0.25031  0.75034  0.00080  1.0000
  O   O16       1.0  0.25028  0.75033  0.50039  1.0000
  O   O17       1.0  0.50037  0.00039  0.00040  1.0000
  O   O18       1.0  0.50020  0.00025  0.50030  1.0000
  O   O19       1.0  0.50040  0.25032  0.00073  1.0000
  O   O20       1.0  0.50023  0.25040  0.50040  1.0000
  O   O21       1.0  0.50032  0.50035  0.00023  1.0000
  O   O22       1.0  0.50033  0.50044  0.50046  1.0000
  O   O23       1.0  0.50030  0.75032  0.00031  1.0000
  O   O24       1.0  0.50030  0.75027  0.50067  1.0000
  O   O25       1.0  0.75040  0.00035  0.00057  1.0000
  O   O26       1.0  0.75023  0.00033  0.50065  1.0000
  O   O27       1.0  0.75026  0.25037  0.00057  1.0000
  O   O28       1.0  0.75023  0.25029  0.50058  1.0000
  O   O29       1.0  0.75038  0.50039  0.00072  1.0000
  O   O30       1.0  0.75035  0.50041  0.50064  1.0000
  O   O31       1.0  0.75037  0.75036  0.00056  1.0000
  O   O32       1.0  0.75042  0.75038  0.50060  1.0000
  O   O33       1.0  0.12533  0.12533  0.25056  1.0000
  O   O34       1.0  0.12524  0.12552  0.75050  1.0000
  O   O35       1.0  0.12513  0.37528  0.25052  1.0000
  O   O36       1.0  0.12544  0.37544  0.75046  1.0000
  O   O37       1.0  0.12535  0.62516  0.25051  1.0000
  O   O38       1.0  0.12532  0.62547  0.75058  1.0000
  O   O39       1.0  0.12528  0.87534  0.25052  1.0000
  O   O40       1.0  0.12552  0.87552  0.75050  1.0000
  O   O41       1.0  0.37534  0.12547  0.25041  1.0000
  O   O42       1.0  0.37543  0.12542  0.75035  1.0000
  O   O43       1.0  0.37543  0.37549  0.25048  1.0000
  O   O44       1.0  0.37532  0.37541  0.75051  1.0000
  O   O45       1.0  0.37537  0.62535  0.25045  1.0000
  O   O46       1.0  0.37521  0.62551  0.75048  1.0000
  O   O47       1.0  0.37546  0.87539  0.25038  1.0000
  O   O48       1.0  0.37528  0.87540  0.75034  1.0000
  O   O49       1.0  0.62541  0.12535  0.25059  1.0000
  O   O50       1.0  0.62527  0.12534  0.75051  1.0000
  O   O51       1.0  0.62552  0.37535  0.25065  1.0000
  O   O52       1.0  0.62545  0.37539  0.75062  1.0000
  O   O53       1.0  0.62521  0.62530  0.25040  1.0000
  O   O54       1.0  0.62550  0.62523  0.75040  1.0000
  O   O55       1.0  0.62542  0.87527  0.25051  1.0000
  O   O56       1.0  0.62536  0.87531  0.75049  1.0000
  O   O57       1.0  0.87533  0.12525  0.25068  1.0000
  O   O58       1.0  0.87514  0.12528  0.75064  1.0000
  O   O59       1.0  0.87525  0.37539  0.25059  1.0000
  O   O60       1.0  0.87535  0.37546  0.75055  1.0000
  O   O61       1.0  0.87552  0.62554  0.25049  1.0000
  O   O62       1.0  0.87542  0.62551  0.75054  1.0000
  O   O63       1.0  0.87533  0.87545  0.25055  1.0000
  O   O64       1.0  0.87552  0.87545  0.75047  1.0000
