data_image0
_chemical_formula_structural       Ba18Ti36Bi36O18
_chemical_formula_sum              "Ba18 Ti36 Bi36 O18"
_cell_length_a       12.3727
_cell_length_b       12.3728
_cell_length_c       17.0178
_cell_angle_alpha    89.9976
_cell_angle_beta     89.9993
_cell_angle_gamma    89.9983

_space_group_name_H-M_alt    "P 1"
_space_group_IT_number       1

loop_
  _space_group_symop_operation_xyz
  'x, y, z'

loop_
  _atom_site_type_symbol
  _atom_site_label
  _atom_site_symmetry_multiplicity
  _atom_site_fract_x
  _atom_site_fract_y
  _atom_site_fract_z
  _atom_site_occupancy
  Ba  Ba1       1.0  0.16718  0.16699  0.25031  1.0000
  Ba  Ba2       1.0  0.16723  0.16700  0.75041  1.0000
  Ba  Ba3       1.0  0.16692  0.50030  0.25037  1.0000
  Ba  Ba4       1.0  0.16696  0.50026  0.75016  1.0000
  Ba  Ba5       1.0  0.16695  0.83388  0.25044  1.0000
  Ba  Ba6       1.0  0.16710  0.83362  0.75011  1.0000
  Ba  Ba7       1.0  0.50037  0.16722  0.25033  1.0000
  Ba  Ba8       1.0  0.50055  0.16705  0.75028  1.0000
  Ba  Ba9       1.0  0.50028  0.50056  0.25029  1.0000
  Ba  Ba10      1.0  0.50037  0.50037  0.75021  1.0000
  Ba  Ba11      1.0  0.50027  0.83390  0.25030  1.0000
  Ba  Ba12      1.0  0.50046  0.83377  0.75044  1.0000
  Ba  Ba13      1.0  0.83376  0.16715  0.25028  1.0000
  Ba  Ba14      1.0  0.83376  0.16704  0.75040  1.0000
  Ba  Ba15      1.0  0.83365  0.50049  0.25012  1.0000
  Ba  Ba16      1.0  0.83376  0.50043  0.75021  1.0000
  Ba  Ba17      1.0  0.83372  0.83377  0.25039  1.0000
  Ba  Ba18      1.0  0.83369  0.83365  0.75026  1.0000
  Ti  Ti1       1.0  0.00041  0.16733  0.00031  1.0000
  Ti  Ti2       1.0  0.00048  0.16697  0.50033  1.0000
  Ti  Ti3       1.0  0.00036  0.50016  0.00032  1.0000
  Ti  Ti4       1.0  0.00040  0.50093  0.50020  1.0000
  Ti  Ti5       1.0  0.00034  0.83386  0.00032  1.0000
  Ti  Ti6       1.0  0.00019  0.83376  0.50032  1.0000
  Ti  Ti7       1.0  0.33378  0.16659  0.00028  1.0000
  Ti  Ti8       1.0  0.33370  0.16704  0.50031  1.0000
  Ti  Ti9       1.0  0.33355  0.50067  0.00034  1.0000
  Ti  Ti10      1.0  0.33364  0.49977  0.50029  1.0000
  Ti  Ti11      1.0  0.33343  0.83385  0.00032  1.0000
  Ti  Ti12      1.0  0.33348  0.83397  0.50026  1.0000
  Ti  Ti13      1.0  0.66731  0.16701  0.00027  1.0000
  Ti  Ti14      1.0  0.66718  0.16700  0.50026  1.0000
  Ti  Ti15      1.0  0.66723  0.50059  0.00040  1.0000
  Ti  Ti16      1.0  0.66730  0.50048  0.50026  1.0000
  Ti  Ti17      1.0  0.66717  0.83362  0.00028  1.0000
  Ti  Ti18      1.0  0.66723  0.83385  0.50022  1.0000
  Ti  Ti19      1.0  0.16671  0.00044  0.00037  1.0000
  Ti  Ti20      1.0  0.16686  0.00035  0.50037  1.0000
  Ti  Ti21      1.0  0.16752  0.33364  0.00029  1.0000
  Ti  Ti22      1.0  0.16669  0.33354  0.50031  1.0000
  Ti  Ti23      1.0  0.16673  0.66723  0.00029  1.0000
  Ti  Ti24      1.0  0.16737  0.66720  0.50025  1.0000
  Ti  Ti25      1.0  0.50068  0.00025  0.00030  1.0000
  Ti  Ti26      1.0  0.50042  0.00024  0.50025  1.0000
  Ti  Ti27      1.0  0.50038  0.33363  0.00027  1.0000
  Ti  Ti28      1.0  0.50086  0.33359  0.50031  1.0000
  Ti  Ti29      1.0  0.50021  0.66720  0.00035  1.0000
  Ti  Ti30      1.0  0.50008  0.66718  0.50026  1.0000
  Ti  Ti31      1.0  0.83388  0.00031  0.00026  1.0000
  Ti  Ti32      1.0  0.83374  0.00060  0.50028  1.0000
  Ti  Ti33      1.0  0.83363  0.33357  0.00033  1.0000
  Ti  Ti34      1.0  0.83405  0.33358  0.50021  1.0000
  Ti  Ti35      1.0  0.83391  0.66726  0.00032  1.0000
  Ti  Ti36      1.0  0.83350  0.66734  0.50023  1.0000
  Bi  Bi1       1.0  0.00028  0.00041  0.12405  1.0000
  Bi  Bi2       1.0  0.00030  0.00047  0.62407  1.0000
  Bi  Bi3       1.0  0.00050  0.33368  0.12399  1.0000
  Bi  Bi4       1.0  0.00035  0.33374  0.62395  1.0000
  Bi  Bi5       1.0  0.00044  0.66706  0.12403  1.0000
  Bi  Bi6       1.0  0.00037  0.66709  0.62389  1.0000
  Bi  Bi7       1.0  0.33375  0.00033  0.12398  1.0000
  Bi  Bi8       1.0  0.33380  0.00042  0.62399  1.0000
  Bi  Bi9       1.0  0.33382  0.33365  0.12394  1.0000
  Bi  Bi10      1.0  0.33378  0.33362  0.62398  1.0000
  Bi  Bi11      1.0  0.33354  0.66714  0.12402  1.0000
  Bi  Bi12      1.0  0.33373  0.66705  0.62392  1.0000
  Bi  Bi13      1.0  0.66714  0.00039  0.12398  1.0000
  Bi  Bi14      1.0  0.66706  0.00037  0.62396  1.0000
  Bi  Bi15      1.0  0.66701  0.33371  0.12397  1.0000
  Bi  Bi16      1.0  0.66724  0.33370  0.62395  1.0000
  Bi  Bi17      1.0  0.66704  0.66724  0.12401  1.0000
  Bi  Bi18      1.0  0.66698  0.66710  0.62390  1.0000
  Bi  Bi19      1.0  0.00036  0.00050  0.37664  1.0000
  Bi  Bi20      1.0  0.00043  0.00038  0.87661  1.0000
  Bi  Bi21      1.0  0.00044  0.33369  0.37659  1.0000
  Bi  Bi22      1.0  0.00046  0.33375  0.87666  1.0000
  Bi  Bi23      1.0  0.00037  0.66722  0.37660  1.0000
  Bi  Bi24      1.0  0.00041  0.66705  0.87661  1.0000
  Bi  Bi25      1.0  0.33365  0.00052  0.37664  1.0000
  Bi  Bi26      1.0  0.33368  0.00030  0.87666  1.0000
  Bi  Bi27      1.0  0.33378  0.33371  0.37668  1.0000
  Bi  Bi28      1.0  0.33385  0.33376  0.87665  1.0000
  Bi  Bi29      1.0  0.33369  0.66706  0.37664  1.0000
  Bi  Bi30      1.0  0.33363  0.66706  0.87665  1.0000
  Bi  Bi31      1.0  0.66708  0.00045  0.37655  1.0000
  Bi  Bi32      1.0  0.66713  0.00040  0.87662  1.0000
  Bi  Bi33      1.0  0.66714  0.33375  0.37661  1.0000
  Bi  Bi34      1.0  0.66714  0.33390  0.87667  1.0000
  Bi  Bi35      1.0  0.66696  0.66709  0.37659  1.0000
  Bi  Bi36      1.0  0.66707  0.66701  0.87667  1.0000
  O   O1        1.0  0.16702  0.16695  0.00036  1.0000
  O   O2        1.0  0.16699  0.16691  0.50039  1.0000
  O   O3        1.0  0.16689  0.50045  0.00033  1.0000
  O   O4        1.0  0.16692  0.50042  0.50027  1.0000
  O   O5        1.0  0.16686  0.83390  0.00038  1.0000
  O   O6        1.0  0.16677  0.83384  0.50028  1.0000
  O   O7        1.0  0.50056  0.16689  0.00029  1.0000
  O   O8        1.0  0.50046  0.16687  0.50030  1.0000
  O   O9        1.0  0.50044  0.50047  0.00040  1.0000
  O   O10       1.0  0.50051  0.50043  0.50031  1.0000
  O   O11       1.0  0.50034  0.83381  0.00031  1.0000
  O   O12       1.0  0.50037  0.83379  0.50025  1.0000
  O   O13       1.0  0.83388  0.16689  0.00030  1.0000
  O   O14       1.0  0.83384  0.16703  0.50025  1.0000
  O   O15       1.0  0.83384  0.50051  0.00036  1.0000
  O   O16       1.0  0.83387  0.50050  0.50021  1.0000
  O   O17       1.0  0.83380  0.83384  0.00031  1.0000
  O   O18       1.0  0.83377  0.83398  0.50031  1.0000
