data_image0
_chemical_formula_structural       Ca16Sn16Bi16O80
_chemical_formula_sum              "Ca16 Sn16 Bi16 O80"
_cell_length_a       10.9205
_cell_length_b       10.5537
_cell_length_c       15.472
_cell_angle_alpha    89.9989
_cell_angle_beta     90.0024
_cell_angle_gamma    90.993

_space_group_name_H-M_alt    "P 1"
_space_group_IT_number       1

loop_
  _space_group_symop_operation_xyz
  'x, y, z'

loop_
  _atom_site_type_symbol
  _atom_site_label
  _atom_site_symmetry_multiplicity
  _atom_site_fract_x
  _atom_site_fract_y
  _atom_site_fract_z
  _atom_site_occupancy
  Ca  Ca1       1.0  0.27253  0.37120  0.57185  1.0000
  Ca  Ca2       1.0  0.77254  0.37120  0.57187  1.0000
  Ca  Ca3       1.0  0.02012  0.13202  0.57172  1.0000
  Ca  Ca4       1.0  0.52010  0.13206  0.57173  1.0000
  Ca  Ca5       1.0  0.02020  0.63201  0.92898  1.0000
  Ca  Ca6       1.0  0.52021  0.63203  0.92900  1.0000
  Ca  Ca7       1.0  0.48072  0.36897  0.07173  1.0000
  Ca  Ca8       1.0  0.98074  0.36899  0.07170  1.0000
  Ca  Ca9       1.0  0.22832  0.12978  0.07182  1.0000
  Ca  Ca10      1.0  0.72832  0.12977  0.07183  1.0000
  Ca  Ca11      1.0  0.48066  0.86904  0.42901  1.0000
  Ca  Ca12      1.0  0.98068  0.86896  0.42900  1.0000
  Ca  Ca13      1.0  0.22833  0.62977  0.42888  1.0000
  Ca  Ca14      1.0  0.72833  0.62979  0.42888  1.0000
  Ca  Ca15      1.0  0.27257  0.87121  0.92885  1.0000
  Ca  Ca16      1.0  0.77256  0.87118  0.92886  1.0000
  Sn  Sn1       1.0  0.01630  0.38077  0.43350  1.0000
  Sn  Sn2       1.0  0.51630  0.38079  0.43349  1.0000
  Sn  Sn3       1.0  0.22761  0.87923  0.56919  1.0000
  Sn  Sn4       1.0  0.72761  0.87923  0.56919  1.0000
  Sn  Sn5       1.0  0.48459  0.62026  0.56716  1.0000
  Sn  Sn6       1.0  0.98461  0.62022  0.56716  1.0000
  Sn  Sn7       1.0  0.27320  0.12185  0.43158  1.0000
  Sn  Sn8       1.0  0.77319  0.12184  0.43158  1.0000
  Sn  Sn9       1.0  0.48459  0.12024  0.93353  1.0000
  Sn  Sn10      1.0  0.98461  0.12025  0.93353  1.0000
  Sn  Sn11      1.0  0.01633  0.88077  0.06720  1.0000
  Sn  Sn12      1.0  0.51630  0.88077  0.06719  1.0000
  Sn  Sn13      1.0  0.22764  0.37922  0.93158  1.0000
  Sn  Sn14      1.0  0.72767  0.37925  0.93157  1.0000
  Sn  Sn15      1.0  0.27329  0.62188  0.06917  1.0000
  Sn  Sn16      1.0  0.77325  0.62184  0.06916  1.0000
  Bi  Bi1       1.0  0.48743  0.85738  0.75292  1.0000
  Bi  Bi2       1.0  0.98742  0.85739  0.75292  1.0000
  Bi  Bi3       1.0  0.01350  0.14363  0.24779  1.0000
  Bi  Bi4       1.0  0.51353  0.14363  0.24780  1.0000
  Bi  Bi5       1.0  0.26586  0.34473  0.25298  1.0000
  Bi  Bi6       1.0  0.76586  0.34471  0.25296  1.0000
  Bi  Bi7       1.0  0.01350  0.64364  0.25292  1.0000
  Bi  Bi8       1.0  0.51350  0.64370  0.25292  1.0000
  Bi  Bi9       1.0  0.23505  0.15625  0.75304  1.0000
  Bi  Bi10      1.0  0.73502  0.15627  0.75304  1.0000
  Bi  Bi11      1.0  0.23508  0.65628  0.74767  1.0000
  Bi  Bi12      1.0  0.73508  0.65631  0.74768  1.0000
  Bi  Bi13      1.0  0.26581  0.84475  0.24775  1.0000
  Bi  Bi14      1.0  0.76587  0.84475  0.24773  1.0000
  Bi  Bi15      1.0  0.48740  0.35745  0.74780  1.0000
  Bi  Bi16      1.0  0.98739  0.35738  0.74781  1.0000
  O   O1        1.0  0.44704  0.29726  0.32197  1.0000
  O   O2        1.0  0.94698  0.29723  0.32196  1.0000
  O   O3        1.0  0.11342  0.99554  0.97412  1.0000
  O   O4        1.0  0.61344  0.99555  0.97412  1.0000
  O   O5        1.0  0.13984  0.49907  0.02367  1.0000
  O   O6        1.0  0.63983  0.49903  0.02368  1.0000
  O   O7        1.0  0.13216  0.78322  0.83096  1.0000
  O   O8        1.0  0.63214  0.78319  0.83096  1.0000
  O   O9        1.0  0.11696  0.27571  0.17000  1.0000
  O   O10       1.0  0.61696  0.27566  0.16999  1.0000
  O   O11       1.0  0.44689  0.79720  0.17866  1.0000
  O   O12       1.0  0.94699  0.79718  0.17870  1.0000
  O   O13       1.0  0.11695  0.77572  0.33072  1.0000
  O   O14       1.0  0.61693  0.77583  0.33069  1.0000
  O   O15       1.0  0.30947  0.83743  0.68757  1.0000
  O   O16       1.0  0.80946  0.83751  0.68761  1.0000
  O   O17       1.0  0.11341  0.49555  0.52658  1.0000
  O   O18       1.0  0.61341  0.49557  0.52657  1.0000
  O   O19       1.0  0.05393  0.70386  0.67869  1.0000
  O   O20       1.0  0.55400  0.70391  0.67868  1.0000
  O   O21       1.0  0.30944  0.33742  0.81313  1.0000
  O   O22       1.0  0.80946  0.33740  0.81314  1.0000
  O   O23       1.0  0.39568  0.24660  0.48475  1.0000
  O   O24       1.0  0.89568  0.24660  0.48478  1.0000
  O   O25       1.0  0.36105  0.00199  0.52366  1.0000
  O   O26       1.0  0.86106  0.00194  0.52361  1.0000
  O   O27       1.0  0.36878  0.71783  0.33100  1.0000
  O   O28       1.0  0.86877  0.71779  0.33096  1.0000
  O   O29       1.0  0.09193  0.00547  0.16318  1.0000
  O   O30       1.0  0.59195  0.00542  0.16319  1.0000
  O   O31       1.0  0.36112  0.50194  0.97711  1.0000
  O   O32       1.0  0.86114  0.50195  0.97708  1.0000
  O   O33       1.0  0.05387  0.20378  0.82197  1.0000
  O   O34       1.0  0.55385  0.20382  0.82196  1.0000
  O   O35       1.0  0.38391  0.22536  0.67005  1.0000
  O   O36       1.0  0.88390  0.22528  0.67006  1.0000
  O   O37       1.0  0.15012  0.76011  0.02808  1.0000
  O   O38       1.0  0.65012  0.76010  0.02812  1.0000
  O   O39       1.0  0.13977  0.99904  0.47707  1.0000
  O   O40       1.0  0.63972  0.99912  0.47712  1.0000
  O   O41       1.0  0.10512  0.75442  0.51589  1.0000
  O   O42       1.0  0.60514  0.75447  0.51586  1.0000
  O   O43       1.0  0.40906  0.99542  0.83759  1.0000
  O   O44       1.0  0.90906  0.99541  0.83759  1.0000
  O   O45       1.0  0.36880  0.21776  0.16973  1.0000
  O   O46       1.0  0.86877  0.21778  0.16972  1.0000
  O   O47       1.0  0.40273  0.02850  0.33581  1.0000
  O   O48       1.0  0.90275  0.02847  0.33580  1.0000
  O   O49       1.0  0.10517  0.25445  0.98476  1.0000
  O   O50       1.0  0.60516  0.25444  0.98479  1.0000
  O   O51       1.0  0.15003  0.26010  0.47265  1.0000
  O   O52       1.0  0.65006  0.26014  0.47263  1.0000
  O   O53       1.0  0.38748  0.50543  0.47410  1.0000
  O   O54       1.0  0.88749  0.50543  0.47408  1.0000
  O   O55       1.0  0.38749  0.00543  0.02664  1.0000
  O   O56       1.0  0.88751  0.00541  0.02663  1.0000
  O   O57       1.0  0.40281  0.52852  0.16489  1.0000
  O   O58       1.0  0.90275  0.52848  0.16489  1.0000
  O   O59       1.0  0.35074  0.74093  0.52813  1.0000
  O   O60       1.0  0.85070  0.74088  0.52818  1.0000
  O   O61       1.0  0.35075  0.24092  0.97258  1.0000
  O   O62       1.0  0.85074  0.24089  0.97258  1.0000
  O   O63       1.0  0.39574  0.74659  0.01588  1.0000
  O   O64       1.0  0.89575  0.74656  0.01591  1.0000
  O   O65       1.0  0.40903  0.49554  0.66314  1.0000
  O   O66       1.0  0.90906  0.49543  0.66313  1.0000
  O   O67       1.0  0.38399  0.72521  0.83063  1.0000
  O   O68       1.0  0.88397  0.72525  0.83064  1.0000
  O   O69       1.0  0.13209  0.28321  0.66973  1.0000
  O   O70       1.0  0.63209  0.28325  0.66975  1.0000
  O   O71       1.0  0.09192  0.50547  0.33752  1.0000
  O   O72       1.0  0.59189  0.50556  0.33755  1.0000
  O   O73       1.0  0.09816  0.47252  0.83582  1.0000
  O   O74       1.0  0.59821  0.47254  0.83580  1.0000
  O   O75       1.0  0.19145  0.16373  0.31319  1.0000
  O   O76       1.0  0.69148  0.16369  0.31319  1.0000
  O   O77       1.0  0.09814  0.97253  0.66489  1.0000
  O   O78       1.0  0.59813  0.97256  0.66489  1.0000
  O   O79       1.0  0.19146  0.66371  0.18752  1.0000
  O   O80       1.0  0.69144  0.66371  0.18754  1.0000
