data_image0
_chemical_formula_structural       Li32Mg16Si16O64
_chemical_formula_sum              "Li32 Mg16 Si16 O64"
_cell_length_a       10.6745
_cell_length_b       9.96815
_cell_length_c       12.5279
_cell_angle_alpha    90.5203
_cell_angle_beta     90.001
_cell_angle_gamma    89.9984

_space_group_name_H-M_alt    "P 1"
_space_group_IT_number       1

loop_
  _space_group_symop_operation_xyz
  'x, y, z'

loop_
  _atom_site_type_symbol
  _atom_site_label
  _atom_site_symmetry_multiplicity
  _atom_site_fract_x
  _atom_site_fract_y
  _atom_site_fract_z
  _atom_site_occupancy
  Li  Li1       1.0  0.83788  0.34624  0.50204  1.0000
  Li  Li2       1.0  0.83791  0.34620  0.00205  1.0000
  Li  Li3       1.0  0.83794  0.84621  0.50203  1.0000
  Li  Li4       1.0  0.83790  0.84620  0.00205  1.0000
  Li  Li5       1.0  0.33791  0.40480  0.74866  1.0000
  Li  Li6       1.0  0.33787  0.40486  0.24864  1.0000
  Li  Li7       1.0  0.33788  0.90479  0.74868  1.0000
  Li  Li8       1.0  0.33789  0.90483  0.24865  1.0000
  Li  Li9       1.0  0.16296  0.65477  0.99866  1.0000
  Li  Li10      1.0  0.16298  0.65482  0.49867  1.0000
  Li  Li11      1.0  0.16298  0.15482  0.99868  1.0000
  Li  Li12      1.0  0.16295  0.15484  0.49867  1.0000
  Li  Li13      1.0  0.66300  0.59631  0.75204  1.0000
  Li  Li14      1.0  0.66295  0.59617  0.25206  1.0000
  Li  Li15      1.0  0.66298  0.09621  0.75207  1.0000
  Li  Li16      1.0  0.66301  0.09629  0.25206  1.0000
  Li  Li17      1.0  0.92558  0.64942  0.88142  1.0000
  Li  Li18      1.0  0.92553  0.64930  0.38143  1.0000
  Li  Li19      1.0  0.92555  0.14927  0.88143  1.0000
  Li  Li20      1.0  0.92551  0.14933  0.38143  1.0000
  Li  Li21      1.0  0.42558  0.60172  0.86927  1.0000
  Li  Li22      1.0  0.42553  0.60166  0.36926  1.0000
  Li  Li23      1.0  0.42553  0.10173  0.86926  1.0000
  Li  Li24      1.0  0.42556  0.10170  0.36929  1.0000
  Li  Li25      1.0  0.07526  0.35178  0.61931  1.0000
  Li  Li26      1.0  0.07529  0.35169  0.11932  1.0000
  Li  Li27      1.0  0.07531  0.85166  0.61931  1.0000
  Li  Li28      1.0  0.07526  0.85166  0.11929  1.0000
  Li  Li29      1.0  0.57531  0.39939  0.63143  1.0000
  Li  Li30      1.0  0.57531  0.39928  0.13146  1.0000
  Li  Li31      1.0  0.57530  0.89928  0.63144  1.0000
  Li  Li32      1.0  0.57531  0.89935  0.13144  1.0000
  Mg  Mg1       1.0  0.83499  0.34592  0.75063  1.0000
  Mg  Mg2       1.0  0.83504  0.34593  0.25061  1.0000
  Mg  Mg3       1.0  0.83503  0.84600  0.75063  1.0000
  Mg  Mg4       1.0  0.83502  0.84591  0.25062  1.0000
  Mg  Mg5       1.0  0.16583  0.65504  0.75009  1.0000
  Mg  Mg6       1.0  0.16580  0.65509  0.25007  1.0000
  Mg  Mg7       1.0  0.16581  0.15510  0.75007  1.0000
  Mg  Mg8       1.0  0.16582  0.15507  0.25009  1.0000
  Mg  Mg9       1.0  0.66585  0.09584  0.50066  1.0000
  Mg  Mg10      1.0  0.66580  0.09599  0.00063  1.0000
  Mg  Mg11      1.0  0.66584  0.59597  0.50064  1.0000
  Mg  Mg12      1.0  0.66580  0.59591  0.00067  1.0000
  Mg  Mg13      1.0  0.33504  0.90507  0.00007  1.0000
  Mg  Mg14      1.0  0.33503  0.90508  0.50007  1.0000
  Mg  Mg15      1.0  0.33501  0.40508  0.00007  1.0000
  Mg  Mg16      1.0  0.33502  0.40505  0.50007  1.0000
  Si  Si1       1.0  0.08673  0.40741  0.87477  1.0000
  Si  Si2       1.0  0.08676  0.40740  0.37477  1.0000
  Si  Si3       1.0  0.08679  0.90741  0.87478  1.0000
  Si  Si4       1.0  0.08675  0.90740  0.37476  1.0000
  Si  Si5       1.0  0.41411  0.15740  0.62476  1.0000
  Si  Si6       1.0  0.41409  0.15740  0.12477  1.0000
  Si  Si7       1.0  0.41408  0.65740  0.62478  1.0000
  Si  Si8       1.0  0.41407  0.65739  0.12476  1.0000
  Si  Si9       1.0  0.91407  0.59364  0.62595  1.0000
  Si  Si10      1.0  0.91406  0.59362  0.12594  1.0000
  Si  Si11      1.0  0.91408  0.09363  0.62594  1.0000
  Si  Si12      1.0  0.91408  0.09362  0.12595  1.0000
  Si  Si13      1.0  0.58677  0.84363  0.87595  1.0000
  Si  Si14      1.0  0.58678  0.84358  0.37593  1.0000
  Si  Si15      1.0  0.58679  0.34364  0.87593  1.0000
  Si  Si16      1.0  0.58679  0.34361  0.37595  1.0000
  O   O1        1.0  0.16127  0.85410  0.98094  1.0000
  O   O2        1.0  0.16129  0.85408  0.48092  1.0000
  O   O3        1.0  0.16126  0.35410  0.98092  1.0000
  O   O4        1.0  0.16126  0.35408  0.48093  1.0000
  O   O5        1.0  0.83955  0.14692  0.51980  1.0000
  O   O6        1.0  0.83957  0.14691  0.01981  1.0000
  O   O7        1.0  0.83958  0.64697  0.51981  1.0000
  O   O8        1.0  0.83953  0.64696  0.01979  1.0000
  O   O9        1.0  0.33958  0.60412  0.73094  1.0000
  O   O10       1.0  0.33953  0.60408  0.23090  1.0000
  O   O11       1.0  0.33955  0.10412  0.73091  1.0000
  O   O12       1.0  0.33956  0.10408  0.23092  1.0000
  O   O13       1.0  0.59051  0.67900  0.87728  1.0000
  O   O14       1.0  0.59047  0.67898  0.37722  1.0000
  O   O15       1.0  0.59053  0.17901  0.87721  1.0000
  O   O16       1.0  0.59052  0.17900  0.37728  1.0000
  O   O17       1.0  0.66129  0.39700  0.76978  1.0000
  O   O18       1.0  0.66130  0.39691  0.26980  1.0000
  O   O19       1.0  0.66128  0.89693  0.76979  1.0000
  O   O20       1.0  0.66128  0.89691  0.26978  1.0000
  O   O21       1.0  0.84126  0.64851  0.73395  1.0000
  O   O22       1.0  0.84120  0.64843  0.23394  1.0000
  O   O23       1.0  0.84123  0.14844  0.73394  1.0000
  O   O24       1.0  0.84125  0.14842  0.23395  1.0000
  O   O25       1.0  0.34124  0.10258  0.51676  1.0000
  O   O26       1.0  0.34128  0.10256  0.01676  1.0000
  O   O27       1.0  0.34124  0.60254  0.51679  1.0000
  O   O28       1.0  0.34123  0.60258  0.01676  1.0000
  O   O29       1.0  0.15960  0.35261  0.76678  1.0000
  O   O30       1.0  0.15960  0.35256  0.26678  1.0000
  O   O31       1.0  0.15960  0.85255  0.76679  1.0000
  O   O32       1.0  0.15960  0.85256  0.26677  1.0000
  O   O33       1.0  0.44192  0.39653  0.87485  1.0000
  O   O34       1.0  0.44191  0.39646  0.37482  1.0000
  O   O35       1.0  0.44190  0.89649  0.87484  1.0000
  O   O36       1.0  0.44193  0.89651  0.37486  1.0000
  O   O37       1.0  0.09047  0.57202  0.87348  1.0000
  O   O38       1.0  0.09050  0.57201  0.37347  1.0000
  O   O39       1.0  0.09054  0.07202  0.87348  1.0000
  O   O40       1.0  0.09049  0.07202  0.37348  1.0000
  O   O41       1.0  0.41039  0.32203  0.62345  1.0000
  O   O42       1.0  0.41031  0.32203  0.12347  1.0000
  O   O43       1.0  0.41032  0.82201  0.62345  1.0000
  O   O44       1.0  0.41038  0.82200  0.12347  1.0000
  O   O45       1.0  0.91031  0.42904  0.62725  1.0000
  O   O46       1.0  0.91033  0.42899  0.12723  1.0000
  O   O47       1.0  0.91036  0.92901  0.62724  1.0000
  O   O48       1.0  0.91035  0.92902  0.12725  1.0000
  O   O49       1.0  0.05892  0.14653  0.62486  1.0000
  O   O50       1.0  0.05893  0.14650  0.12486  1.0000
  O   O51       1.0  0.05896  0.64648  0.62486  1.0000
  O   O52       1.0  0.05892  0.64650  0.12485  1.0000
  O   O53       1.0  0.94193  0.85460  0.87586  1.0000
  O   O54       1.0  0.94190  0.85453  0.37583  1.0000
  O   O55       1.0  0.94189  0.35450  0.87586  1.0000
  O   O56       1.0  0.94190  0.35456  0.37585  1.0000
  O   O57       1.0  0.55895  0.60456  0.62588  1.0000
  O   O58       1.0  0.55889  0.60443  0.12588  1.0000
  O   O59       1.0  0.55895  0.10448  0.62587  1.0000
  O   O60       1.0  0.55896  0.10456  0.12588  1.0000
  O   O61       1.0  0.65961  0.89849  0.98394  1.0000
  O   O62       1.0  0.65963  0.89836  0.48394  1.0000
  O   O63       1.0  0.65965  0.39843  0.98394  1.0000
  O   O64       1.0  0.65960  0.39847  0.48393  1.0000
