data_image0
_chemical_formula_structural       Rb80Ga16O64
_chemical_formula_sum              "Rb80 Ga16 O64"
_cell_length_a       13.8755
_cell_length_b       11.7829
_cell_length_c       21.3602
_cell_angle_alpha    89.9953
_cell_angle_beta     89.9993
_cell_angle_gamma    90.0051

_space_group_name_H-M_alt    "P 1"
_space_group_IT_number       1

loop_
  _space_group_symop_operation_xyz
  'x, y, z'

loop_
  _atom_site_type_symbol
  _atom_site_label
  _atom_site_symmetry_multiplicity
  _atom_site_fract_x
  _atom_site_fract_y
  _atom_site_fract_z
  _atom_site_occupancy
  Rb  Rb1       1.0  0.28690  0.29664  0.36988  1.0000
  Rb  Rb2       1.0  0.78688  0.29661  0.36987  1.0000
  Rb  Rb3       1.0  0.03695  0.70409  0.13057  1.0000
  Rb  Rb4       1.0  0.53696  0.70405  0.13056  1.0000
  Rb  Rb5       1.0  0.21381  0.20423  0.86988  1.0000
  Rb  Rb6       1.0  0.71384  0.20422  0.86995  1.0000
  Rb  Rb7       1.0  0.46394  0.79672  0.63062  1.0000
  Rb  Rb8       1.0  0.96388  0.79673  0.63059  1.0000
  Rb  Rb9       1.0  0.21385  0.70421  0.63057  1.0000
  Rb  Rb10      1.0  0.71386  0.70417  0.63062  1.0000
  Rb  Rb11      1.0  0.46390  0.29666  0.86989  1.0000
  Rb  Rb12      1.0  0.96390  0.29661  0.86994  1.0000
  Rb  Rb13      1.0  0.28679  0.79673  0.13053  1.0000
  Rb  Rb14      1.0  0.78678  0.79680  0.13061  1.0000
  Rb  Rb15      1.0  0.03697  0.20409  0.36989  1.0000
  Rb  Rb16      1.0  0.53701  0.20410  0.36987  1.0000
  Rb  Rb17      1.0  0.28825  0.36089  0.00386  1.0000
  Rb  Rb18      1.0  0.78817  0.36103  0.00397  1.0000
  Rb  Rb19      1.0  0.03832  0.63979  0.49664  1.0000
  Rb  Rb20      1.0  0.53826  0.63973  0.49662  1.0000
  Rb  Rb21      1.0  0.21254  0.13974  0.50384  1.0000
  Rb  Rb22      1.0  0.71256  0.13975  0.50386  1.0000
  Rb  Rb23      1.0  0.46247  0.86087  0.99652  1.0000
  Rb  Rb24      1.0  0.96243  0.86080  0.99658  1.0000
  Rb  Rb25      1.0  0.21250  0.63964  0.99652  1.0000
  Rb  Rb26      1.0  0.71246  0.63981  0.99656  1.0000
  Rb  Rb27      1.0  0.46258  0.36087  0.50392  1.0000
  Rb  Rb28      1.0  0.96264  0.36092  0.50394  1.0000
  Rb  Rb29      1.0  0.28831  0.86094  0.49657  1.0000
  Rb  Rb30      1.0  0.78823  0.86088  0.49657  1.0000
  Rb  Rb31      1.0  0.03818  0.13960  0.00388  1.0000
  Rb  Rb32      1.0  0.53816  0.13974  0.00385  1.0000
  Rb  Rb33      1.0  0.29199  0.07073  0.06640  1.0000
  Rb  Rb34      1.0  0.79201  0.07070  0.06641  1.0000
  Rb  Rb35      1.0  0.04208  0.92984  0.43397  1.0000
  Rb  Rb36      1.0  0.54209  0.92994  0.43404  1.0000
  Rb  Rb37      1.0  0.20877  0.43001  0.56646  1.0000
  Rb  Rb38      1.0  0.70872  0.43007  0.56649  1.0000
  Rb  Rb39      1.0  0.45867  0.57070  0.93404  1.0000
  Rb  Rb40      1.0  0.95866  0.57067  0.93406  1.0000
  Rb  Rb41      1.0  0.20866  0.93001  0.93401  1.0000
  Rb  Rb42      1.0  0.70864  0.92997  0.93401  1.0000
  Rb  Rb43      1.0  0.45873  0.07069  0.56641  1.0000
  Rb  Rb44      1.0  0.95869  0.07057  0.56635  1.0000
  Rb  Rb45      1.0  0.29210  0.57063  0.43406  1.0000
  Rb  Rb46      1.0  0.79210  0.57061  0.43408  1.0000
  Rb  Rb47      1.0  0.04203  0.42995  0.06645  1.0000
  Rb  Rb48      1.0  0.54204  0.43002  0.06647  1.0000
  Rb  Rb49      1.0  0.44075  0.41289  0.25529  1.0000
  Rb  Rb50      1.0  0.94078  0.41294  0.25529  1.0000
  Rb  Rb51      1.0  0.19075  0.58779  0.24515  1.0000
  Rb  Rb52      1.0  0.69077  0.58788  0.24519  1.0000
  Rb  Rb53      1.0  0.06001  0.08789  0.75529  1.0000
  Rb  Rb54      1.0  0.56012  0.08793  0.75532  1.0000
  Rb  Rb55      1.0  0.31001  0.91289  0.74510  1.0000
  Rb  Rb56      1.0  0.80998  0.91281  0.74515  1.0000
  Rb  Rb57      1.0  0.06009  0.58787  0.74514  1.0000
  Rb  Rb58      1.0  0.56004  0.58788  0.74518  1.0000
  Rb  Rb59      1.0  0.31002  0.41284  0.75535  1.0000
  Rb  Rb60      1.0  0.81008  0.41278  0.75536  1.0000
  Rb  Rb61      1.0  0.44063  0.91280  0.24508  1.0000
  Rb  Rb62      1.0  0.94075  0.91274  0.24515  1.0000
  Rb  Rb63      1.0  0.19071  0.08779  0.25527  1.0000
  Rb  Rb64      1.0  0.69073  0.08771  0.25524  1.0000
  Rb  Rb65      1.0  0.44384  0.17146  0.17793  1.0000
  Rb  Rb66      1.0  0.94382  0.17144  0.17796  1.0000
  Rb  Rb67      1.0  0.19406  0.82920  0.32249  1.0000
  Rb  Rb68      1.0  0.69387  0.82930  0.32253  1.0000
  Rb  Rb69      1.0  0.05683  0.32937  0.67794  1.0000
  Rb  Rb70      1.0  0.55686  0.32940  0.67796  1.0000
  Rb  Rb71      1.0  0.30684  0.67150  0.82252  1.0000
  Rb  Rb72      1.0  0.80695  0.67137  0.82255  1.0000
  Rb  Rb73      1.0  0.05679  0.82933  0.82249  1.0000
  Rb  Rb74      1.0  0.55676  0.82937  0.82250  1.0000
  Rb  Rb75      1.0  0.30689  0.17150  0.67793  1.0000
  Rb  Rb76      1.0  0.80699  0.17141  0.67791  1.0000
  Rb  Rb77      1.0  0.44391  0.67144  0.32251  1.0000
  Rb  Rb78      1.0  0.94390  0.67139  0.32255  1.0000
  Rb  Rb79      1.0  0.19397  0.32929  0.17794  1.0000
  Rb  Rb80      1.0  0.69401  0.32934  0.17796  1.0000
  Ga  Ga1       1.0  0.33892  0.53186  0.12505  1.0000
  Ga  Ga2       1.0  0.83895  0.53199  0.12508  1.0000
  Ga  Ga3       1.0  0.08892  0.46925  0.37544  1.0000
  Ga  Ga4       1.0  0.58890  0.46926  0.37544  1.0000
  Ga  Ga5       1.0  0.16180  0.96940  0.62502  1.0000
  Ga  Ga6       1.0  0.66182  0.96935  0.62506  1.0000
  Ga  Ga7       1.0  0.41176  0.03182  0.87534  1.0000
  Ga  Ga8       1.0  0.91177  0.03168  0.87535  1.0000
  Ga  Ga9       1.0  0.16172  0.46939  0.87536  1.0000
  Ga  Ga10      1.0  0.66173  0.46941  0.87541  1.0000
  Ga  Ga11      1.0  0.41180  0.53186  0.62512  1.0000
  Ga  Ga12      1.0  0.91182  0.53184  0.62509  1.0000
  Ga  Ga13      1.0  0.33901  0.03167  0.37534  1.0000
  Ga  Ga14      1.0  0.83895  0.03164  0.37534  1.0000
  Ga  Ga15      1.0  0.08881  0.96923  0.12503  1.0000
  Ga  Ga16      1.0  0.58877  0.96925  0.12500  1.0000
  O   O1        1.0  0.37385  0.37597  0.13048  1.0000
  O   O2        1.0  0.87389  0.37614  0.13050  1.0000
  O   O3        1.0  0.12395  0.62505  0.37002  1.0000
  O   O4        1.0  0.62393  0.62500  0.37002  1.0000
  O   O5        1.0  0.12679  0.12513  0.63044  1.0000
  O   O6        1.0  0.62688  0.12519  0.63046  1.0000
  O   O7        1.0  0.37679  0.87598  0.86993  1.0000
  O   O8        1.0  0.87683  0.87585  0.86995  1.0000
  O   O9        1.0  0.12673  0.62514  0.86995  1.0000
  O   O10       1.0  0.62681  0.62514  0.86998  1.0000
  O   O11       1.0  0.37690  0.37601  0.63052  1.0000
  O   O12       1.0  0.87686  0.37599  0.63051  1.0000
  O   O13       1.0  0.37398  0.87591  0.36996  1.0000
  O   O14       1.0  0.87389  0.87577  0.36994  1.0000
  O   O15       1.0  0.12382  0.12500  0.13048  1.0000
  O   O16       1.0  0.62385  0.12503  0.13045  1.0000
  O   O17       1.0  0.37896  0.11003  0.30151  1.0000
  O   O18       1.0  0.87902  0.10999  0.30146  1.0000
  O   O19       1.0  0.12890  0.89074  0.19884  1.0000
  O   O20       1.0  0.62878  0.89077  0.19886  1.0000
  O   O21       1.0  0.12175  0.39080  0.80154  1.0000
  O   O22       1.0  0.62179  0.39085  0.80159  1.0000
  O   O23       1.0  0.37175  0.61015  0.69898  1.0000
  O   O24       1.0  0.87183  0.61009  0.69899  1.0000
  O   O25       1.0  0.12183  0.89090  0.69887  1.0000
  O   O26       1.0  0.62179  0.89085  0.69895  1.0000
  O   O27       1.0  0.37178  0.11021  0.80147  1.0000
  O   O28       1.0  0.87176  0.11007  0.80151  1.0000
  O   O29       1.0  0.37893  0.61018  0.19896  1.0000
  O   O30       1.0  0.87896  0.61025  0.19896  1.0000
  O   O31       1.0  0.12898  0.39076  0.30154  1.0000
  O   O32       1.0  0.62895  0.39083  0.30159  1.0000
  O   O33       1.0  0.39501  0.10025  0.44677  1.0000
  O   O34       1.0  0.89503  0.10023  0.44681  1.0000
  O   O35       1.0  0.14483  0.90062  0.05359  1.0000
  O   O36       1.0  0.64488  0.90055  0.05360  1.0000
  O   O37       1.0  0.10573  0.40062  0.94686  1.0000
  O   O38       1.0  0.60571  0.40065  0.94688  1.0000
  O   O39       1.0  0.35574  0.60047  0.55363  1.0000
  O   O40       1.0  0.85576  0.60049  0.55363  1.0000
  O   O41       1.0  0.10578  0.90056  0.55360  1.0000
  O   O42       1.0  0.60574  0.90056  0.55360  1.0000
  O   O43       1.0  0.35570  0.10044  0.94682  1.0000
  O   O44       1.0  0.85573  0.10025  0.94684  1.0000
  O   O45       1.0  0.39499  0.60043  0.05357  1.0000
  O   O46       1.0  0.89500  0.60055  0.05361  1.0000
  O   O47       1.0  0.14502  0.40049  0.44688  1.0000
  O   O48       1.0  0.64497  0.40052  0.44685  1.0000
  O   O49       1.0  0.45299  0.45971  0.38454  1.0000
  O   O50       1.0  0.95295  0.45968  0.38454  1.0000
  O   O51       1.0  0.20294  0.54110  0.11595  1.0000
  O   O52       1.0  0.70298  0.54119  0.11599  1.0000
  O   O53       1.0  0.04768  0.04108  0.88446  1.0000
  O   O54       1.0  0.54767  0.04110  0.88448  1.0000
  O   O55       1.0  0.29771  0.95987  0.61593  1.0000
  O   O56       1.0  0.79776  0.95972  0.61594  1.0000
  O   O57       1.0  0.04773  0.54110  0.61597  1.0000
  O   O58       1.0  0.54773  0.54121  0.61601  1.0000
  O   O59       1.0  0.29766  0.45987  0.88451  1.0000
  O   O60       1.0  0.79765  0.45975  0.88456  1.0000
  O   O61       1.0  0.45284  0.95983  0.11587  1.0000
  O   O62       1.0  0.95291  0.95977  0.11595  1.0000
  O   O63       1.0  0.20310  0.04095  0.38447  1.0000
  O   O64       1.0  0.70300  0.04103  0.38445  1.0000
