data_image0
_chemical_formula_structural       Ba8Hf8Si24O72
_chemical_formula_sum              "Ba8 Hf8 Si24 O72"
_cell_length_a       13.5467
_cell_length_b       11.732
_cell_length_c       10.0308
_cell_angle_alpha    90.0019
_cell_angle_beta     90.0033
_cell_angle_gamma    89.9988

_space_group_name_H-M_alt    "P 1"
_space_group_IT_number       1

loop_
  _space_group_symop_operation_xyz
  'x, y, z'

loop_
  _atom_site_type_symbol
  _atom_site_label
  _atom_site_symmetry_multiplicity
  _atom_site_fract_x
  _atom_site_fract_y
  _atom_site_fract_z
  _atom_site_occupancy
  Ba  Ba1       1.0  0.00048  0.00043  0.00051  1.0000
  Ba  Ba2       1.0  0.25027  0.50042  0.00075  1.0000
  Ba  Ba3       1.0  0.50043  0.00037  0.00060  1.0000
  Ba  Ba4       1.0  0.75026  0.50041  0.00058  1.0000
  Ba  Ba5       1.0  0.00036  0.00037  0.50043  1.0000
  Ba  Ba6       1.0  0.25047  0.50045  0.50076  1.0000
  Ba  Ba7       1.0  0.50039  0.00042  0.50053  1.0000
  Ba  Ba8       1.0  0.75043  0.50030  0.50029  1.0000
  Hf  Hf1       1.0  0.25046  0.16710  0.00049  1.0000
  Hf  Hf2       1.0  0.50030  0.66705  0.00057  1.0000
  Hf  Hf3       1.0  0.75043  0.16701  0.00044  1.0000
  Hf  Hf4       1.0  0.00033  0.66709  0.00040  1.0000
  Hf  Hf5       1.0  0.25035  0.16704  0.50051  1.0000
  Hf  Hf6       1.0  0.50046  0.66705  0.50057  1.0000
  Hf  Hf7       1.0  0.75037  0.16704  0.50050  1.0000
  Hf  Hf8       1.0  0.00042  0.66704  0.50043  1.0000
  Si  Si1       1.0  0.33582  0.72269  0.75061  1.0000
  Si  Si2       1.0  0.58580  0.22273  0.75054  1.0000
  Si  Si3       1.0  0.83577  0.72258  0.75032  1.0000
  Si  Si4       1.0  0.08581  0.22269  0.75051  1.0000
  Si  Si5       1.0  0.29100  0.97467  0.75055  1.0000
  Si  Si6       1.0  0.54094  0.47468  0.75049  1.0000
  Si  Si7       1.0  0.79095  0.97455  0.75039  1.0000
  Si  Si8       1.0  0.04094  0.47466  0.75044  1.0000
  Si  Si9       1.0  0.12443  0.80382  0.75044  1.0000
  Si  Si10      1.0  0.37439  0.30389  0.75051  1.0000
  Si  Si11      1.0  0.62439  0.80374  0.75053  1.0000
  Si  Si12      1.0  0.87439  0.30382  0.75054  1.0000
  Si  Si13      1.0  0.37636  0.80381  0.25052  1.0000
  Si  Si14      1.0  0.62636  0.30377  0.25046  1.0000
  Si  Si15      1.0  0.87636  0.80384  0.25043  1.0000
  Si  Si16      1.0  0.12640  0.30385  0.25050  1.0000
  Si  Si17      1.0  0.16496  0.72270  0.25049  1.0000
  Si  Si18      1.0  0.41496  0.22267  0.25060  1.0000
  Si  Si19      1.0  0.66498  0.72272  0.25049  1.0000
  Si  Si20      1.0  0.91499  0.22273  0.25046  1.0000
  Si  Si21      1.0  0.20985  0.97467  0.25052  1.0000
  Si  Si22      1.0  0.45981  0.47463  0.25062  1.0000
  Si  Si23      1.0  0.70985  0.97468  0.25050  1.0000
  Si  Si24      1.0  0.95986  0.47465  0.25039  1.0000
  O   O1        1.0  0.36069  0.85972  0.75078  1.0000
  O   O2        1.0  0.61065  0.35975  0.75060  1.0000
  O   O3        1.0  0.86059  0.85959  0.75037  1.0000
  O   O4        1.0  0.11066  0.35972  0.75044  1.0000
  O   O5        1.0  0.17582  0.93097  0.75060  1.0000
  O   O6        1.0  0.42572  0.43107  0.75029  1.0000
  O   O7        1.0  0.67577  0.93090  0.75055  1.0000
  O   O8        1.0  0.92575  0.43099  0.75038  1.0000
  O   O9        1.0  0.21477  0.71043  0.75033  1.0000
  O   O10       1.0  0.46474  0.21052  0.75048  1.0000
  O   O11       1.0  0.71472  0.71038  0.75036  1.0000
  O   O12       1.0  0.96474  0.21044  0.75055  1.0000
  O   O13       1.0  0.28601  0.71045  0.25050  1.0000
  O   O14       1.0  0.53601  0.21041  0.25051  1.0000
  O   O15       1.0  0.78603  0.71049  0.25025  1.0000
  O   O16       1.0  0.03605  0.21050  0.25044  1.0000
  O   O17       1.0  0.14013  0.85974  0.25047  1.0000
  O   O18       1.0  0.39014  0.35968  0.25060  1.0000
  O   O19       1.0  0.64012  0.85975  0.25046  1.0000
  O   O20       1.0  0.89013  0.35974  0.25040  1.0000
  O   O21       1.0  0.32504  0.93099  0.25075  1.0000
  O   O22       1.0  0.57499  0.43091  0.25043  1.0000
  O   O23       1.0  0.82505  0.93102  0.25059  1.0000
  O   O24       1.0  0.07506  0.43101  0.25028  1.0000
  O   O25       1.0  0.12523  0.16154  0.88426  1.0000
  O   O26       1.0  0.37513  0.66142  0.88435  1.0000
  O   O27       1.0  0.62523  0.16150  0.88424  1.0000
  O   O28       1.0  0.87524  0.66135  0.88400  1.0000
  O   O29       1.0  0.31721  0.04480  0.88419  1.0000
  O   O30       1.0  0.56702  0.54471  0.88427  1.0000
  O   O31       1.0  0.81720  0.04473  0.88401  1.0000
  O   O32       1.0  0.06715  0.54460  0.88425  1.0000
  O   O33       1.0  0.30882  0.29513  0.88429  1.0000
  O   O34       1.0  0.55879  0.79489  0.88425  1.0000
  O   O35       1.0  0.80887  0.29507  0.88435  1.0000
  O   O36       1.0  0.05879  0.79499  0.88414  1.0000
  O   O37       1.0  0.12525  0.16140  0.61686  1.0000
  O   O38       1.0  0.37537  0.66154  0.61693  1.0000
  O   O39       1.0  0.62524  0.16151  0.61683  1.0000
  O   O40       1.0  0.87518  0.66143  0.61659  1.0000
  O   O41       1.0  0.31713  0.04460  0.61675  1.0000
  O   O42       1.0  0.56727  0.54471  0.61684  1.0000
  O   O43       1.0  0.81708  0.04449  0.61659  1.0000
  O   O44       1.0  0.06714  0.54477  0.61680  1.0000
  O   O45       1.0  0.30870  0.29498  0.61686  1.0000
  O   O46       1.0  0.55876  0.79504  0.61680  1.0000
  O   O47       1.0  0.80869  0.29493  0.61691  1.0000
  O   O48       1.0  0.05878  0.79500  0.61675  1.0000
  O   O49       1.0  0.19193  0.29504  0.38428  1.0000
  O   O50       1.0  0.44206  0.79487  0.38414  1.0000
  O   O51       1.0  0.69194  0.29495  0.38418  1.0000
  O   O52       1.0  0.94205  0.79489  0.38406  1.0000
  O   O53       1.0  0.37552  0.16149  0.38430  1.0000
  O   O54       1.0  0.62565  0.66156  0.38428  1.0000
  O   O55       1.0  0.87553  0.16161  0.38421  1.0000
  O   O56       1.0  0.12559  0.66145  0.38420  1.0000
  O   O57       1.0  0.18357  0.04475  0.38415  1.0000
  O   O58       1.0  0.43368  0.54458  0.38441  1.0000
  O   O59       1.0  0.68363  0.04473  0.38417  1.0000
  O   O60       1.0  0.93372  0.54464  0.38414  1.0000
  O   O61       1.0  0.19209  0.29499  0.11685  1.0000
  O   O62       1.0  0.44193  0.79511  0.11675  1.0000
  O   O63       1.0  0.69201  0.29494  0.11675  1.0000
  O   O64       1.0  0.94190  0.79510  0.11663  1.0000
  O   O65       1.0  0.37554  0.16141  0.11689  1.0000
  O   O66       1.0  0.62544  0.66146  0.11685  1.0000
  O   O67       1.0  0.87556  0.16147  0.11677  1.0000
  O   O68       1.0  0.12543  0.66153  0.11678  1.0000
  O   O69       1.0  0.18373  0.04468  0.11674  1.0000
  O   O70       1.0  0.43357  0.54476  0.11699  1.0000
  O   O71       1.0  0.68370  0.04464  0.11672  1.0000
  O   O72       1.0  0.93359  0.54474  0.11673  1.0000
