data_image0
_chemical_formula_structural       Ba6Ca12Y36O72
_chemical_formula_sum              "Ba6 Ca12 Y36 O72"
_cell_length_a       10.2121
_cell_length_b       17.6876
_cell_length_c       10.1461
_cell_angle_alpha    89.9988
_cell_angle_beta     89.9965
_cell_angle_gamma    89.9951

_space_group_name_H-M_alt    "P 1"
_space_group_IT_number       1

loop_
  _space_group_symop_operation_xyz
  'x, y, z'

loop_
  _atom_site_type_symbol
  _atom_site_label
  _atom_site_symmetry_multiplicity
  _atom_site_fract_x
  _atom_site_fract_y
  _atom_site_fract_z
  _atom_site_occupancy
  Ba  Ba1       1.0  0.50058  0.50029  0.41731  1.0000
  Ba  Ba2       1.0  0.00049  0.00030  0.41724  1.0000
  Ba  Ba3       1.0  0.50049  0.50029  0.08394  1.0000
  Ba  Ba4       1.0  0.00043  0.00029  0.08389  1.0000
  Ba  Ba5       1.0  0.50039  0.50022  0.75062  1.0000
  Ba  Ba6       1.0  0.00044  0.00026  0.75053  1.0000
  Ca  Ca1       1.0  0.00050  0.33369  0.41724  1.0000
  Ca  Ca2       1.0  0.50041  0.83364  0.41721  1.0000
  Ca  Ca3       1.0  0.00046  0.33365  0.08388  1.0000
  Ca  Ca4       1.0  0.50040  0.83362  0.08382  1.0000
  Ca  Ca5       1.0  0.00048  0.33361  0.75057  1.0000
  Ca  Ca6       1.0  0.50042  0.83364  0.75051  1.0000
  Ca  Ca7       1.0  0.00054  0.66697  0.58385  1.0000
  Ca  Ca8       1.0  0.50062  0.16697  0.58386  1.0000
  Ca  Ca9       1.0  0.00053  0.66695  0.25053  1.0000
  Ca  Ca10      1.0  0.50065  0.16696  0.25054  1.0000
  Ca  Ca11      1.0  0.00052  0.66698  0.91720  1.0000
  Ca  Ca12      1.0  0.50058  0.16698  0.91727  1.0000
  Y   Y1        1.0  0.32588  0.32659  0.41722  1.0000
  Y   Y2        1.0  0.82585  0.82657  0.41714  1.0000
  Y   Y3        1.0  0.32588  0.32655  0.08392  1.0000
  Y   Y4        1.0  0.82591  0.82662  0.08381  1.0000
  Y   Y5        1.0  0.32589  0.32655  0.75054  1.0000
  Y   Y6        1.0  0.82587  0.82660  0.75054  1.0000
  Y   Y7        1.0  0.82730  0.17442  0.41724  1.0000
  Y   Y8        1.0  0.32726  0.67441  0.41718  1.0000
  Y   Y9        1.0  0.82731  0.17447  0.08387  1.0000
  Y   Y10       1.0  0.32729  0.67440  0.08388  1.0000
  Y   Y11       1.0  0.82732  0.17444  0.75056  1.0000
  Y   Y12       1.0  0.32726  0.67441  0.75052  1.0000
  Y   Y13       1.0  0.84837  0.49986  0.41715  1.0000
  Y   Y14       1.0  0.34824  0.99984  0.41724  1.0000
  Y   Y15       1.0  0.84828  0.49988  0.08382  1.0000
  Y   Y16       1.0  0.34823  0.99983  0.08390  1.0000
  Y   Y17       1.0  0.84830  0.49985  0.75054  1.0000
  Y   Y18       1.0  0.34832  0.99985  0.75056  1.0000
  Y   Y19       1.0  0.67432  0.67387  0.58387  1.0000
  Y   Y20       1.0  0.17436  0.17383  0.58386  1.0000
  Y   Y21       1.0  0.67433  0.67387  0.25055  1.0000
  Y   Y22       1.0  0.17437  0.17383  0.25051  1.0000
  Y   Y23       1.0  0.67435  0.67386  0.91716  1.0000
  Y   Y24       1.0  0.17440  0.17381  0.91715  1.0000
  Y   Y25       1.0  0.17386  0.82658  0.58383  1.0000
  Y   Y26       1.0  0.67393  0.32661  0.58388  1.0000
  Y   Y27       1.0  0.17385  0.82658  0.25050  1.0000
  Y   Y28       1.0  0.67387  0.32660  0.25058  1.0000
  Y   Y29       1.0  0.17387  0.82655  0.91715  1.0000
  Y   Y30       1.0  0.67393  0.32661  0.91722  1.0000
  Y   Y31       1.0  0.15324  0.50043  0.58390  1.0000
  Y   Y32       1.0  0.65327  0.00044  0.58388  1.0000
  Y   Y33       1.0  0.15326  0.50039  0.25050  1.0000
  Y   Y34       1.0  0.65325  0.00041  0.25052  1.0000
  Y   Y35       1.0  0.15324  0.50045  0.91720  1.0000
  Y   Y36       1.0  0.65320  0.00044  0.91723  1.0000
  O   O1        1.0  0.71193  0.40228  0.41723  1.0000
  O   O2        1.0  0.21205  0.90227  0.41714  1.0000
  O   O3        1.0  0.71205  0.40232  0.08390  1.0000
  O   O4        1.0  0.21204  0.90225  0.08384  1.0000
  O   O5        1.0  0.71204  0.40225  0.75052  1.0000
  O   O6        1.0  0.21210  0.90223  0.75051  1.0000
  O   O7        1.0  0.24769  0.44346  0.41722  1.0000
  O   O8        1.0  0.74777  0.94355  0.41715  1.0000
  O   O9        1.0  0.24762  0.44350  0.08385  1.0000
  O   O10       1.0  0.74774  0.94356  0.08380  1.0000
  O   O11       1.0  0.24774  0.44350  0.75055  1.0000
  O   O12       1.0  0.74776  0.94356  0.75058  1.0000
  O   O13       1.0  0.04179  0.15508  0.41715  1.0000
  O   O14       1.0  0.54176  0.65508  0.41721  1.0000
  O   O15       1.0  0.04180  0.15509  0.08385  1.0000
  O   O16       1.0  0.54174  0.65509  0.08385  1.0000
  O   O17       1.0  0.04174  0.15507  0.75055  1.0000
  O   O18       1.0  0.54174  0.65506  0.75052  1.0000
  O   O19       1.0  0.31234  0.58979  0.58386  1.0000
  O   O20       1.0  0.81230  0.08985  0.58391  1.0000
  O   O21       1.0  0.31234  0.58977  0.25054  1.0000
  O   O22       1.0  0.81224  0.08984  0.25055  1.0000
  O   O23       1.0  0.31234  0.58978  0.91721  1.0000
  O   O24       1.0  0.81225  0.08983  0.91724  1.0000
  O   O25       1.0  0.72890  0.54963  0.58383  1.0000
  O   O26       1.0  0.22879  0.04958  0.58391  1.0000
  O   O27       1.0  0.72882  0.54964  0.25053  1.0000
  O   O28       1.0  0.22877  0.04957  0.25054  1.0000
  O   O29       1.0  0.72887  0.54962  0.91721  1.0000
  O   O30       1.0  0.22877  0.04959  0.91720  1.0000
  O   O31       1.0  0.96028  0.86143  0.58384  1.0000
  O   O32       1.0  0.46028  0.36138  0.58391  1.0000
  O   O33       1.0  0.96028  0.86141  0.25048  1.0000
  O   O34       1.0  0.46024  0.36137  0.25054  1.0000
  O   O35       1.0  0.96025  0.86142  0.91720  1.0000
  O   O36       1.0  0.46027  0.36138  0.91724  1.0000
  O   O37       1.0  0.12854  0.73592  0.41712  1.0000
  O   O38       1.0  0.62863  0.23595  0.41720  1.0000
  O   O39       1.0  0.12854  0.73591  0.08386  1.0000
  O   O40       1.0  0.62857  0.23595  0.08388  1.0000
  O   O41       1.0  0.12856  0.73594  0.75045  1.0000
  O   O42       1.0  0.62858  0.23595  0.75057  1.0000
  O   O43       1.0  0.03994  0.56842  0.41720  1.0000
  O   O44       1.0  0.53993  0.06840  0.41720  1.0000
  O   O45       1.0  0.03993  0.56841  0.08390  1.0000
  O   O46       1.0  0.53989  0.06843  0.08389  1.0000
  O   O47       1.0  0.03994  0.56846  0.75048  1.0000
  O   O48       1.0  0.53992  0.06844  0.75050  1.0000
  O   O49       1.0  0.83297  0.69648  0.41717  1.0000
  O   O50       1.0  0.33305  0.19643  0.41723  1.0000
  O   O51       1.0  0.83299  0.69648  0.08380  1.0000
  O   O52       1.0  0.33299  0.19645  0.08385  1.0000
  O   O53       1.0  0.83298  0.69650  0.75045  1.0000
  O   O54       1.0  0.33304  0.19642  0.75050  1.0000
  O   O55       1.0  0.86846  0.26312  0.58389  1.0000
  O   O56       1.0  0.36845  0.76309  0.58381  1.0000
  O   O57       1.0  0.86846  0.26314  0.25054  1.0000
  O   O58       1.0  0.36844  0.76310  0.25055  1.0000
  O   O59       1.0  0.86851  0.26314  0.91722  1.0000
  O   O60       1.0  0.36847  0.76308  0.91716  1.0000
  O   O61       1.0  0.96074  0.43487  0.58386  1.0000
  O   O62       1.0  0.46073  0.93487  0.58384  1.0000
  O   O63       1.0  0.96072  0.43487  0.25055  1.0000
  O   O64       1.0  0.46072  0.93489  0.25053  1.0000
  O   O65       1.0  0.96076  0.43492  0.91716  1.0000
  O   O66       1.0  0.46069  0.93488  0.91716  1.0000
  O   O67       1.0  0.17224  0.30287  0.58399  1.0000
  O   O68       1.0  0.67219  0.80290  0.58387  1.0000
  O   O69       1.0  0.17223  0.30288  0.25061  1.0000
  O   O70       1.0  0.67228  0.80293  0.25052  1.0000
  O   O71       1.0  0.17224  0.30286  0.91721  1.0000
  O   O72       1.0  0.67220  0.80293  0.91717  1.0000
