data_image0
_chemical_formula_structural       Rb16Zr8Si24O80
_chemical_formula_sum              "Rb16 Zr8 Si24 O80"
_cell_length_a       14.6139
_cell_length_b       11.2268
_cell_length_c       12.7657
_cell_angle_alpha    89.9991
_cell_angle_beta     90.0041
_cell_angle_gamma    90.0012

_space_group_name_H-M_alt    "P 1"
_space_group_IT_number       1

loop_
  _space_group_symop_operation_xyz
  'x, y, z'

loop_
  _atom_site_type_symbol
  _atom_site_label
  _atom_site_symmetry_multiplicity
  _atom_site_fract_x
  _atom_site_fract_y
  _atom_site_fract_z
  _atom_site_occupancy
  Rb  Rb1       1.0  0.15664  0.71582  0.06771  1.0000
  Rb  Rb2       1.0  0.65661  0.71579  0.06767  1.0000
  Rb  Rb3       1.0  0.40669  0.78518  0.93313  1.0000
  Rb  Rb4       1.0  0.90673  0.78512  0.93322  1.0000
  Rb  Rb5       1.0  0.34408  0.21581  0.43318  1.0000
  Rb  Rb6       1.0  0.84414  0.21583  0.43310  1.0000
  Rb  Rb7       1.0  0.09399  0.28507  0.56758  1.0000
  Rb  Rb8       1.0  0.59405  0.28515  0.56753  1.0000
  Rb  Rb9       1.0  0.38036  0.59051  0.59138  1.0000
  Rb  Rb10      1.0  0.88040  0.59049  0.59135  1.0000
  Rb  Rb11      1.0  0.13044  0.91042  0.40942  1.0000
  Rb  Rb12      1.0  0.63046  0.91042  0.40958  1.0000
  Rb  Rb13      1.0  0.12034  0.09058  0.90935  1.0000
  Rb  Rb14      1.0  0.62032  0.09051  0.90947  1.0000
  Rb  Rb15      1.0  0.37024  0.41043  0.09128  1.0000
  Rb  Rb16      1.0  0.87025  0.41042  0.09117  1.0000
  Zr  Zr1       1.0  0.11490  0.58101  0.73118  1.0000
  Zr  Zr2       1.0  0.61496  0.58099  0.73124  1.0000
  Zr  Zr3       1.0  0.36490  0.91997  0.26955  1.0000
  Zr  Zr4       1.0  0.86490  0.91995  0.26953  1.0000
  Zr  Zr5       1.0  0.38579  0.08101  0.76954  1.0000
  Zr  Zr6       1.0  0.88583  0.08098  0.76956  1.0000
  Zr  Zr7       1.0  0.13577  0.41995  0.23122  1.0000
  Zr  Zr8       1.0  0.63577  0.41997  0.23123  1.0000
  Si  Si1       1.0  0.23858  0.82779  0.69939  1.0000
  Si  Si2       1.0  0.73860  0.82778  0.69938  1.0000
  Si  Si3       1.0  0.48856  0.67314  0.30140  1.0000
  Si  Si4       1.0  0.98856  0.67312  0.30135  1.0000
  Si  Si5       1.0  0.26220  0.32785  0.80137  1.0000
  Si  Si6       1.0  0.76215  0.32780  0.80138  1.0000
  Si  Si7       1.0  0.01214  0.17314  0.19935  1.0000
  Si  Si8       1.0  0.51214  0.17315  0.19941  1.0000
  Si  Si9       1.0  0.38253  0.92721  0.54950  1.0000
  Si  Si10      1.0  0.88256  0.92723  0.54948  1.0000
  Si  Si11      1.0  0.13252  0.57370  0.45125  1.0000
  Si  Si12      1.0  0.63253  0.57372  0.45131  1.0000
  Si  Si13      1.0  0.11819  0.42724  0.95125  1.0000
  Si  Si14      1.0  0.61822  0.42724  0.95129  1.0000
  Si  Si15      1.0  0.36817  0.07371  0.04948  1.0000
  Si  Si16      1.0  0.86817  0.07370  0.04950  1.0000
  Si  Si17      1.0  0.46624  0.35790  0.81204  1.0000
  Si  Si18      1.0  0.96621  0.35788  0.81198  1.0000
  Si  Si19      1.0  0.21620  0.14307  0.18869  1.0000
  Si  Si20      1.0  0.71617  0.14309  0.18868  1.0000
  Si  Si21      1.0  0.03452  0.85791  0.68870  1.0000
  Si  Si22      1.0  0.53455  0.85789  0.68875  1.0000
  Si  Si23      1.0  0.28453  0.64303  0.31207  1.0000
  Si  Si24      1.0  0.78449  0.64305  0.31210  1.0000
  O   O1        1.0  0.12801  0.55230  0.88973  1.0000
  O   O2        1.0  0.62803  0.55225  0.88974  1.0000
  O   O3        1.0  0.37806  0.94868  0.11100  1.0000
  O   O4        1.0  0.87806  0.94863  0.11097  1.0000
  O   O5        1.0  0.37266  0.05224  0.61105  1.0000
  O   O6        1.0  0.87269  0.05232  0.61096  1.0000
  O   O7        1.0  0.12262  0.44864  0.38975  1.0000
  O   O8        1.0  0.62269  0.44870  0.38972  1.0000
  O   O9        1.0  0.22826  0.69068  0.73102  1.0000
  O   O10       1.0  0.72828  0.69065  0.73094  1.0000
  O   O11       1.0  0.47820  0.81023  0.26977  1.0000
  O   O12       1.0  0.97821  0.81019  0.26966  1.0000
  O   O13       1.0  0.27251  0.19076  0.76974  1.0000
  O   O14       1.0  0.77250  0.19070  0.76979  1.0000
  O   O15       1.0  0.02247  0.31023  0.23099  1.0000
  O   O16       1.0  0.52249  0.31026  0.23102  1.0000
  O   O17       1.0  0.11327  0.56323  0.57347  1.0000
  O   O18       1.0  0.61329  0.56321  0.57352  1.0000
  O   O19       1.0  0.36333  0.93774  0.42726  1.0000
  O   O20       1.0  0.86339  0.93773  0.42723  1.0000
  O   O21       1.0  0.38743  0.06323  0.92725  1.0000
  O   O22       1.0  0.88741  0.06322  0.92727  1.0000
  O   O23       1.0  0.13737  0.43773  0.07348  1.0000
  O   O24       1.0  0.63741  0.43774  0.07351  1.0000
  O   O25       1.0  0.01034  0.45299  0.73256  1.0000
  O   O26       1.0  0.51033  0.45300  0.73258  1.0000
  O   O27       1.0  0.26026  0.04792  0.26811  1.0000
  O   O28       1.0  0.76028  0.04793  0.26812  1.0000
  O   O29       1.0  0.49050  0.95309  0.76814  1.0000
  O   O30       1.0  0.99043  0.95306  0.76814  1.0000
  O   O31       1.0  0.24035  0.54793  0.23265  1.0000
  O   O32       1.0  0.74038  0.54789  0.23268  1.0000
  O   O33       1.0  0.21022  0.41456  0.71336  1.0000
  O   O34       1.0  0.71014  0.41452  0.71340  1.0000
  O   O35       1.0  0.46017  0.08642  0.28742  1.0000
  O   O36       1.0  0.96021  0.08640  0.28735  1.0000
  O   O37       1.0  0.29061  0.91454  0.78732  1.0000
  O   O38       1.0  0.79060  0.91448  0.78738  1.0000
  O   O39       1.0  0.04050  0.58638  0.21331  1.0000
  O   O40       1.0  0.54057  0.58641  0.21343  1.0000
  O   O41       1.0  0.02765  0.72272  0.73369  1.0000
  O   O42       1.0  0.52771  0.72270  0.73376  1.0000
  O   O43       1.0  0.27762  0.77825  0.26713  1.0000
  O   O44       1.0  0.77763  0.77825  0.26708  1.0000
  O   O45       1.0  0.47308  0.22268  0.76706  1.0000
  O   O46       1.0  0.97307  0.22266  0.76702  1.0000
  O   O47       1.0  0.22302  0.27827  0.23367  1.0000
  O   O48       1.0  0.72305  0.27826  0.23371  1.0000
  O   O49       1.0  0.14211  0.88889  0.66421  1.0000
  O   O50       1.0  0.64212  0.88881  0.66427  1.0000
  O   O51       1.0  0.39210  0.61206  0.33650  1.0000
  O   O52       1.0  0.89207  0.61213  0.33659  1.0000
  O   O53       1.0  0.35869  0.38890  0.83645  1.0000
  O   O54       1.0  0.85864  0.38888  0.83643  1.0000
  O   O55       1.0  0.10863  0.11213  0.16418  1.0000
  O   O56       1.0  0.60858  0.11208  0.16426  1.0000
  O   O57       1.0  0.48305  0.86732  0.57419  1.0000
  O   O58       1.0  0.98310  0.86735  0.57415  1.0000
  O   O59       1.0  0.23312  0.63352  0.42661  1.0000
  O   O60       1.0  0.73305  0.63363  0.42664  1.0000
  O   O61       1.0  0.01767  0.36732  0.92653  1.0000
  O   O62       1.0  0.51769  0.36732  0.92659  1.0000
  O   O63       1.0  0.26764  0.13357  0.07412  1.0000
  O   O64       1.0  0.76761  0.13359  0.07411  1.0000
  O   O65       1.0  0.30705  0.83463  0.59904  1.0000
  O   O66       1.0  0.80708  0.83460  0.59901  1.0000
  O   O67       1.0  0.05713  0.66639  0.40163  1.0000
  O   O68       1.0  0.55707  0.66630  0.40172  1.0000
  O   O69       1.0  0.19371  0.33471  0.90169  1.0000
  O   O70       1.0  0.69372  0.33470  0.90178  1.0000
  O   O71       1.0  0.44361  0.16635  0.09910  1.0000
  O   O72       1.0  0.94360  0.16636  0.09903  1.0000
  O   O73       1.0  0.23104  0.88634  0.88265  1.0000
  O   O74       1.0  0.73101  0.88622  0.88267  1.0000
  O   O75       1.0  0.48095  0.61465  0.11816  1.0000
  O   O76       1.0  0.98095  0.61461  0.11798  1.0000
  O   O77       1.0  0.26964  0.38623  0.61794  1.0000
  O   O78       1.0  0.76971  0.38611  0.61809  1.0000
  O   O79       1.0  0.01980  0.11463  0.38265  1.0000
  O   O80       1.0  0.51977  0.11464  0.38271  1.0000
