data_image0
_chemical_formula_structural       Rb16Si24Sn8O72
_chemical_formula_sum              "Rb16 Si24 Sn8 O72"
_cell_length_a       14.0002
_cell_length_b       12.1251
_cell_length_c       10.1064
_cell_angle_alpha    90.0001
_cell_angle_beta     89.9989
_cell_angle_gamma    90.0019

_space_group_name_H-M_alt    "P 1"
_space_group_IT_number       1

loop_
  _space_group_symop_operation_xyz
  'x, y, z'

loop_
  _atom_site_type_symbol
  _atom_site_label
  _atom_site_symmetry_multiplicity
  _atom_site_fract_x
  _atom_site_fract_y
  _atom_site_fract_z
  _atom_site_occupancy
  Rb  Rb1       1.0  0.25034  0.16708  0.06027  1.0000
  Rb  Rb2       1.0  0.50027  0.66695  0.06029  1.0000
  Rb  Rb3       1.0  0.75035  0.16710  0.06027  1.0000
  Rb  Rb4       1.0  0.00040  0.66706  0.06024  1.0000
  Rb  Rb5       1.0  0.25030  0.83365  0.56019  1.0000
  Rb  Rb6       1.0  0.50033  0.33365  0.56024  1.0000
  Rb  Rb7       1.0  0.75040  0.83370  0.56026  1.0000
  Rb  Rb8       1.0  0.00041  0.33369  0.56020  1.0000
  Rb  Rb9       1.0  0.25035  0.16717  0.44068  1.0000
  Rb  Rb10      1.0  0.50040  0.66703  0.44073  1.0000
  Rb  Rb11      1.0  0.75023  0.16704  0.44077  1.0000
  Rb  Rb12      1.0  0.00031  0.66705  0.44061  1.0000
  Rb  Rb13      1.0  0.25040  0.83362  0.94068  1.0000
  Rb  Rb14      1.0  0.50037  0.33376  0.94087  1.0000
  Rb  Rb15      1.0  0.75035  0.83375  0.94072  1.0000
  Rb  Rb16      1.0  0.00028  0.33366  0.94070  1.0000
  Si  Si1       1.0  0.34297  0.06837  0.75050  1.0000
  Si  Si2       1.0  0.59298  0.56834  0.75050  1.0000
  Si  Si3       1.0  0.84294  0.06832  0.75043  1.0000
  Si  Si4       1.0  0.09292  0.56837  0.75044  1.0000
  Si  Si5       1.0  0.37066  0.87699  0.25036  1.0000
  Si  Si6       1.0  0.62069  0.37694  0.25049  1.0000
  Si  Si7       1.0  0.87068  0.87694  0.25049  1.0000
  Si  Si8       1.0  0.12067  0.37697  0.25043  1.0000
  Si  Si9       1.0  0.22265  0.69178  0.25045  1.0000
  Si  Si10      1.0  0.47264  0.19174  0.25054  1.0000
  Si  Si11      1.0  0.72262  0.69173  0.25048  1.0000
  Si  Si12      1.0  0.97265  0.19177  0.25050  1.0000
  Si  Si13      1.0  0.27805  0.30898  0.75042  1.0000
  Si  Si14      1.0  0.52805  0.80898  0.75047  1.0000
  Si  Si15      1.0  0.77803  0.30896  0.75043  1.0000
  Si  Si16      1.0  0.02809  0.80901  0.75043  1.0000
  Si  Si17      1.0  0.13004  0.12375  0.75047  1.0000
  Si  Si18      1.0  0.38006  0.62378  0.75047  1.0000
  Si  Si19      1.0  0.63002  0.12373  0.75050  1.0000
  Si  Si20      1.0  0.88003  0.62377  0.75047  1.0000
  Si  Si21      1.0  0.15773  0.93239  0.25045  1.0000
  Si  Si22      1.0  0.40776  0.43240  0.25052  1.0000
  Si  Si23      1.0  0.65779  0.93239  0.25055  1.0000
  Si  Si24      1.0  0.90773  0.43237  0.25042  1.0000
  Sn  Sn1       1.0  0.00031  0.00040  0.00043  1.0000
  Sn  Sn2       1.0  0.25034  0.50038  0.00044  1.0000
  Sn  Sn3       1.0  0.50037  0.00038  0.00050  1.0000
  Sn  Sn4       1.0  0.75033  0.50036  0.00044  1.0000
  Sn  Sn5       1.0  0.00035  0.00039  0.50043  1.0000
  Sn  Sn6       1.0  0.25031  0.50044  0.50047  1.0000
  Sn  Sn7       1.0  0.50030  0.00036  0.50047  1.0000
  Sn  Sn8       1.0  0.75035  0.50037  0.50044  1.0000
  O   O1        1.0  0.11982  0.98479  0.38628  1.0000
  O   O2        1.0  0.36979  0.48485  0.38631  1.0000
  O   O3        1.0  0.61976  0.98481  0.38632  1.0000
  O   O4        1.0  0.86972  0.48484  0.38617  1.0000
  O   O5        1.0  0.07167  0.11205  0.88621  1.0000
  O   O6        1.0  0.32184  0.61201  0.88634  1.0000
  O   O7        1.0  0.57179  0.11200  0.88636  1.0000
  O   O8        1.0  0.82168  0.61200  0.88619  1.0000
  O   O9        1.0  0.29834  0.37318  0.88622  1.0000
  O   O10       1.0  0.54834  0.87323  0.88622  1.0000
  O   O11       1.0  0.79835  0.37312  0.88626  1.0000
  O   O12       1.0  0.04839  0.87323  0.88622  1.0000
  O   O13       1.0  0.20236  0.62768  0.38633  1.0000
  O   O14       1.0  0.45233  0.12767  0.38642  1.0000
  O   O15       1.0  0.70224  0.62753  0.38626  1.0000
  O   O16       1.0  0.95239  0.12762  0.38634  1.0000
  O   O17       1.0  0.42892  0.88880  0.38620  1.0000
  O   O18       1.0  0.67901  0.38869  0.38626  1.0000
  O   O19       1.0  0.92895  0.88875  0.38630  1.0000
  O   O20       1.0  0.17895  0.38883  0.38623  1.0000
  O   O21       1.0  0.38096  0.01608  0.88634  1.0000
  O   O22       1.0  0.63090  0.51590  0.88628  1.0000
  O   O23       1.0  0.88089  0.01596  0.88626  1.0000
  O   O24       1.0  0.13095  0.51598  0.88622  1.0000
  O   O25       1.0  0.38089  0.01597  0.61467  1.0000
  O   O26       1.0  0.63097  0.51597  0.61469  1.0000
  O   O27       1.0  0.88094  0.01585  0.61469  1.0000
  O   O28       1.0  0.13081  0.51602  0.61455  1.0000
  O   O29       1.0  0.42894  0.88870  0.11455  1.0000
  O   O30       1.0  0.67893  0.38873  0.11464  1.0000
  O   O31       1.0  0.92895  0.88875  0.11469  1.0000
  O   O32       1.0  0.17893  0.38871  0.11460  1.0000
  O   O33       1.0  0.20229  0.62753  0.11471  1.0000
  O   O34       1.0  0.45232  0.12751  0.11479  1.0000
  O   O35       1.0  0.70234  0.62760  0.11463  1.0000
  O   O36       1.0  0.95236  0.12759  0.11471  1.0000
  O   O37       1.0  0.29833  0.37321  0.61464  1.0000
  O   O38       1.0  0.54834  0.87312  0.61464  1.0000
  O   O39       1.0  0.79833  0.37313  0.61460  1.0000
  O   O40       1.0  0.04838  0.87319  0.61462  1.0000
  O   O41       1.0  0.07179  0.11195  0.61463  1.0000
  O   O42       1.0  0.32173  0.61204  0.61469  1.0000
  O   O43       1.0  0.57164  0.11192  0.61480  1.0000
  O   O44       1.0  0.82178  0.61195  0.61465  1.0000
  O   O45       1.0  0.11969  0.98474  0.11468  1.0000
  O   O46       1.0  0.36975  0.48481  0.11475  1.0000
  O   O47       1.0  0.61978  0.98476  0.11475  1.0000
  O   O48       1.0  0.86978  0.48473  0.11457  1.0000
  O   O49       1.0  0.14654  0.79697  0.25047  1.0000
  O   O50       1.0  0.39656  0.29699  0.25050  1.0000
  O   O51       1.0  0.64660  0.79699  0.25056  1.0000
  O   O52       1.0  0.89653  0.29697  0.25055  1.0000
  O   O53       1.0  0.22599  0.04487  0.75060  1.0000
  O   O54       1.0  0.47601  0.54489  0.75043  1.0000
  O   O55       1.0  0.72597  0.04482  0.75039  1.0000
  O   O56       1.0  0.97597  0.54482  0.75054  1.0000
  O   O57       1.0  0.17091  0.25246  0.75041  1.0000
  O   O58       1.0  0.42089  0.75250  0.75046  1.0000
  O   O59       1.0  0.67089  0.25243  0.75043  1.0000
  O   O60       1.0  0.92094  0.75245  0.75042  1.0000
  O   O61       1.0  0.32980  0.74829  0.25036  1.0000
  O   O62       1.0  0.57981  0.24823  0.25051  1.0000
  O   O63       1.0  0.82979  0.74823  0.25054  1.0000
  O   O64       1.0  0.07982  0.24826  0.25054  1.0000
  O   O65       1.0  0.27470  0.95589  0.25031  1.0000
  O   O66       1.0  0.52473  0.45585  0.25049  1.0000
  O   O67       1.0  0.77476  0.95590  0.25056  1.0000
  O   O68       1.0  0.02469  0.45584  0.25045  1.0000
  O   O69       1.0  0.35418  0.20376  0.75041  1.0000
  O   O70       1.0  0.60417  0.70375  0.75059  1.0000
  O   O71       1.0  0.85413  0.20374  0.75039  1.0000
  O   O72       1.0  0.10416  0.70378  0.75050  1.0000
