data_image0
_chemical_formula_structural       Y16Ge16Bi16O80
_chemical_formula_sum              "Y16 Ge16 Bi16 O80"
_cell_length_a       10.6952
_cell_length_b       11.0543
_cell_length_c       15.2792
_cell_angle_alpha    89.9987
_cell_angle_beta     89.998
_cell_angle_gamma    89.9981

_space_group_name_H-M_alt    "P 1"
_space_group_IT_number       1

loop_
  _space_group_symop_operation_xyz
  'x, y, z'

loop_
  _atom_site_type_symbol
  _atom_site_label
  _atom_site_symmetry_multiplicity
  _atom_site_fract_x
  _atom_site_fract_y
  _atom_site_fract_z
  _atom_site_occupancy
  Y   Y1        1.0  0.00569  0.64145  0.94661  1.0000
  Y   Y2        1.0  0.50571  0.64146  0.94664  1.0000
  Y   Y3        1.0  0.49516  0.35949  0.05404  1.0000
  Y   Y4        1.0  0.99519  0.35947  0.05402  1.0000
  Y   Y5        1.0  0.24514  0.14143  0.05403  1.0000
  Y   Y6        1.0  0.74513  0.14145  0.05401  1.0000
  Y   Y7        1.0  0.49518  0.85947  0.44657  1.0000
  Y   Y8        1.0  0.99517  0.85950  0.44661  1.0000
  Y   Y9        1.0  0.25566  0.85950  0.94661  1.0000
  Y   Y10       1.0  0.75568  0.85951  0.94659  1.0000
  Y   Y11       1.0  0.00570  0.14144  0.55400  1.0000
  Y   Y12       1.0  0.50566  0.14140  0.55401  1.0000
  Y   Y13       1.0  0.25568  0.35951  0.55403  1.0000
  Y   Y14       1.0  0.75564  0.35948  0.55404  1.0000
  Y   Y15       1.0  0.24512  0.64145  0.44661  1.0000
  Y   Y16       1.0  0.74515  0.64141  0.44662  1.0000
  Ge  Ge1       1.0  0.00404  0.59707  0.59695  1.0000
  Ge  Ge2       1.0  0.50404  0.59713  0.59694  1.0000
  Ge  Ge3       1.0  0.49674  0.40392  0.40375  1.0000
  Ge  Ge4       1.0  0.99675  0.40391  0.40374  1.0000
  Ge  Ge5       1.0  0.24681  0.09710  0.40373  1.0000
  Ge  Ge6       1.0  0.74677  0.09708  0.40372  1.0000
  Ge  Ge7       1.0  0.49673  0.90391  0.09694  1.0000
  Ge  Ge8       1.0  0.99675  0.90394  0.09692  1.0000
  Ge  Ge9       1.0  0.25410  0.90394  0.59693  1.0000
  Ge  Ge10      1.0  0.75410  0.90393  0.59689  1.0000
  Ge  Ge11      1.0  0.00405  0.09703  0.90373  1.0000
  Ge  Ge12      1.0  0.50402  0.09704  0.90373  1.0000
  Ge  Ge13      1.0  0.25416  0.40394  0.90374  1.0000
  Ge  Ge14      1.0  0.75414  0.40401  0.90375  1.0000
  Ge  Ge15      1.0  0.24678  0.59710  0.09693  1.0000
  Ge  Ge16      1.0  0.74678  0.59711  0.09693  1.0000
  Bi  Bi1       1.0  0.22937  0.64763  0.76217  1.0000
  Bi  Bi2       1.0  0.72932  0.64765  0.76213  1.0000
  Bi  Bi3       1.0  0.27151  0.35334  0.23846  1.0000
  Bi  Bi4       1.0  0.77150  0.35331  0.23840  1.0000
  Bi  Bi5       1.0  0.02154  0.14763  0.23849  1.0000
  Bi  Bi6       1.0  0.52149  0.14764  0.23849  1.0000
  Bi  Bi7       1.0  0.27146  0.85330  0.26216  1.0000
  Bi  Bi8       1.0  0.77149  0.85330  0.26218  1.0000
  Bi  Bi9       1.0  0.47932  0.85335  0.76219  1.0000
  Bi  Bi10      1.0  0.97935  0.85330  0.76216  1.0000
  Bi  Bi11      1.0  0.22934  0.14764  0.73848  1.0000
  Bi  Bi12      1.0  0.72935  0.14761  0.73847  1.0000
  Bi  Bi13      1.0  0.47935  0.35329  0.73846  1.0000
  Bi  Bi14      1.0  0.97933  0.35330  0.73844  1.0000
  Bi  Bi15      1.0  0.02147  0.64760  0.26217  1.0000
  Bi  Bi16      1.0  0.52149  0.64759  0.26216  1.0000
  O   O1        1.0  0.12528  0.76570  0.84831  1.0000
  O   O2        1.0  0.62529  0.76576  0.84828  1.0000
  O   O3        1.0  0.37556  0.23522  0.15236  1.0000
  O   O4        1.0  0.87556  0.23518  0.15232  1.0000
  O   O5        1.0  0.12557  0.26570  0.15234  1.0000
  O   O6        1.0  0.62555  0.26565  0.15231  1.0000
  O   O7        1.0  0.37554  0.73517  0.34828  1.0000
  O   O8        1.0  0.87556  0.73517  0.34830  1.0000
  O   O9        1.0  0.37527  0.73517  0.84830  1.0000
  O   O10       1.0  0.87527  0.73519  0.84828  1.0000
  O   O11       1.0  0.12529  0.26569  0.65232  1.0000
  O   O12       1.0  0.62529  0.26567  0.65233  1.0000
  O   O13       1.0  0.37529  0.23522  0.65234  1.0000
  O   O14       1.0  0.87526  0.23519  0.65232  1.0000
  O   O15       1.0  0.12552  0.76570  0.34830  1.0000
  O   O16       1.0  0.62556  0.76566  0.34830  1.0000
  O   O17       1.0  0.17906  0.81007  0.52152  1.0000
  O   O18       1.0  0.67904  0.81004  0.52153  1.0000
  O   O19       1.0  0.32181  0.19089  0.47914  1.0000
  O   O20       1.0  0.82180  0.19092  0.47913  1.0000
  O   O21       1.0  0.07182  0.31004  0.47908  1.0000
  O   O22       1.0  0.57176  0.31002  0.47911  1.0000
  O   O23       1.0  0.32182  0.69089  0.02150  1.0000
  O   O24       1.0  0.82184  0.69095  0.02150  1.0000
  O   O25       1.0  0.42906  0.69088  0.52147  1.0000
  O   O26       1.0  0.92908  0.69087  0.52148  1.0000
  O   O27       1.0  0.17909  0.31007  0.97914  1.0000
  O   O28       1.0  0.67907  0.31014  0.97912  1.0000
  O   O29       1.0  0.42905  0.19083  0.97917  1.0000
  O   O30       1.0  0.92904  0.19088  0.97915  1.0000
  O   O31       1.0  0.07176  0.81005  0.02153  1.0000
  O   O32       1.0  0.57182  0.81005  0.02152  1.0000
  O   O33       1.0  0.15173  0.54254  0.56338  1.0000
  O   O34       1.0  0.65174  0.54255  0.56339  1.0000
  O   O35       1.0  0.34902  0.45839  0.43728  1.0000
  O   O36       1.0  0.84901  0.45835  0.43726  1.0000
  O   O37       1.0  0.09904  0.04263  0.43722  1.0000
  O   O38       1.0  0.59907  0.04256  0.43723  1.0000
  O   O39       1.0  0.34903  0.95834  0.06338  1.0000
  O   O40       1.0  0.84901  0.95836  0.06338  1.0000
  O   O41       1.0  0.40178  0.95835  0.56334  1.0000
  O   O42       1.0  0.90183  0.95839  0.56334  1.0000
  O   O43       1.0  0.15174  0.04253  0.93727  1.0000
  O   O44       1.0  0.65178  0.04258  0.93726  1.0000
  O   O45       1.0  0.40186  0.45835  0.93729  1.0000
  O   O46       1.0  0.90189  0.45837  0.93723  1.0000
  O   O47       1.0  0.09904  0.54260  0.06341  1.0000
  O   O48       1.0  0.59906  0.54260  0.06340  1.0000
  O   O49       1.0  0.15671  0.52716  0.87468  1.0000
  O   O50       1.0  0.65672  0.52723  0.87472  1.0000
  O   O51       1.0  0.34412  0.47380  0.12591  1.0000
  O   O52       1.0  0.84416  0.47379  0.12585  1.0000
  O   O53       1.0  0.09415  0.02714  0.12593  1.0000
  O   O54       1.0  0.59416  0.02713  0.12596  1.0000
  O   O55       1.0  0.34410  0.97374  0.37473  1.0000
  O   O56       1.0  0.84411  0.97377  0.37473  1.0000
  O   O57       1.0  0.40668  0.97373  0.87475  1.0000
  O   O58       1.0  0.90666  0.97376  0.87471  1.0000
  O   O59       1.0  0.15664  0.02715  0.62594  1.0000
  O   O60       1.0  0.65667  0.02716  0.62592  1.0000
  O   O61       1.0  0.40665  0.47385  0.62596  1.0000
  O   O62       1.0  0.90664  0.47378  0.62591  1.0000
  O   O63       1.0  0.09416  0.52714  0.37469  1.0000
  O   O64       1.0  0.59416  0.52716  0.37472  1.0000
  O   O65       1.0  0.03175  0.67041  0.69891  1.0000
  O   O66       1.0  0.53177  0.67051  0.69888  1.0000
  O   O67       1.0  0.46903  0.33058  0.30176  1.0000
  O   O68       1.0  0.96897  0.33047  0.30178  1.0000
  O   O69       1.0  0.21908  0.17047  0.30176  1.0000
  O   O70       1.0  0.71903  0.17048  0.30175  1.0000
  O   O71       1.0  0.46896  0.83047  0.19886  1.0000
  O   O72       1.0  0.96902  0.83051  0.19890  1.0000
  O   O73       1.0  0.28179  0.83054  0.69889  1.0000
  O   O74       1.0  0.78187  0.83053  0.69883  1.0000
  O   O75       1.0  0.03179  0.17043  0.80177  1.0000
  O   O76       1.0  0.53177  0.17036  0.80175  1.0000
  O   O77       1.0  0.28187  0.33049  0.80180  1.0000
  O   O78       1.0  0.78183  0.33053  0.80177  1.0000
  O   O79       1.0  0.21902  0.67045  0.19889  1.0000
  O   O80       1.0  0.71907  0.67043  0.19887  1.0000
