data_image0
_chemical_formula_structural       Sr8Y8Ga24O56
_chemical_formula_sum              "Sr8 Y8 Ga24 O56"
_cell_length_a       11.0875
_cell_length_b       11.3761
_cell_length_c       10.4891
_cell_angle_alpha    90.0011
_cell_angle_beta     89.9991
_cell_angle_gamma    89.9962

_space_group_name_H-M_alt    "P 1"
_space_group_IT_number       1

loop_
  _space_group_symop_operation_xyz
  'x, y, z'

loop_
  _atom_site_type_symbol
  _atom_site_label
  _atom_site_symmetry_multiplicity
  _atom_site_fract_x
  _atom_site_fract_y
  _atom_site_fract_z
  _atom_site_occupancy
  Sr  Sr1       1.0  0.50046  0.33864  0.24662  1.0000
  Sr  Sr2       1.0  0.50055  0.33867  0.74672  1.0000
  Sr  Sr3       1.0  0.00057  0.83870  0.24670  1.0000
  Sr  Sr4       1.0  0.00054  0.83866  0.74672  1.0000
  Sr  Sr5       1.0  0.50039  0.66227  0.24669  1.0000
  Sr  Sr6       1.0  0.50043  0.66221  0.74673  1.0000
  Sr  Sr7       1.0  0.00049  0.16225  0.24668  1.0000
  Sr  Sr8       1.0  0.00045  0.16218  0.74678  1.0000
  Y   Y1        1.0  0.65943  0.00053  0.25921  1.0000
  Y   Y2        1.0  0.65943  0.00037  0.75911  1.0000
  Y   Y3        1.0  0.15941  0.50045  0.25915  1.0000
  Y   Y4        1.0  0.15947  0.50052  0.75910  1.0000
  Y   Y5        1.0  0.34152  0.00042  0.25921  1.0000
  Y   Y6        1.0  0.34148  0.00049  0.75916  1.0000
  Y   Y7        1.0  0.84149  0.50054  0.25934  1.0000
  Y   Y8        1.0  0.84153  0.50038  0.75924  1.0000
  Ga  Ga1       1.0  0.50052  0.14027  0.01849  1.0000
  Ga  Ga2       1.0  0.50060  0.14032  0.51849  1.0000
  Ga  Ga3       1.0  0.00055  0.64025  0.01850  1.0000
  Ga  Ga4       1.0  0.00063  0.64028  0.51854  1.0000
  Ga  Ga5       1.0  0.84898  0.00036  0.48338  1.0000
  Ga  Ga6       1.0  0.84891  0.00031  0.98342  1.0000
  Ga  Ga7       1.0  0.34897  0.50036  0.48335  1.0000
  Ga  Ga8       1.0  0.34900  0.50037  0.98338  1.0000
  Ga  Ga9       1.0  0.50055  0.86079  0.01852  1.0000
  Ga  Ga10      1.0  0.50058  0.86079  0.51851  1.0000
  Ga  Ga11      1.0  0.00047  0.36077  0.01855  1.0000
  Ga  Ga12      1.0  0.00057  0.36077  0.51854  1.0000
  Ga  Ga13      1.0  0.15184  0.00037  0.48340  1.0000
  Ga  Ga14      1.0  0.15181  0.00041  0.98344  1.0000
  Ga  Ga15      1.0  0.65180  0.50041  0.48344  1.0000
  Ga  Ga16      1.0  0.65188  0.50036  0.98351  1.0000
  Ga  Ga17      1.0  0.25057  0.75046  0.49600  1.0000
  Ga  Ga18      1.0  0.25052  0.75053  0.99593  1.0000
  Ga  Ga19      1.0  0.75055  0.25052  0.49604  1.0000
  Ga  Ga20      1.0  0.75049  0.25042  0.99605  1.0000
  Ga  Ga21      1.0  0.25051  0.25048  0.49607  1.0000
  Ga  Ga22      1.0  0.25044  0.25054  0.99601  1.0000
  Ga  Ga23      1.0  0.75049  0.75053  0.49611  1.0000
  Ga  Ga24      1.0  0.75051  0.75042  0.99605  1.0000
  O   O1        1.0  0.00042  0.00034  0.41503  1.0000
  O   O2        1.0  0.00038  0.00045  0.91510  1.0000
  O   O3        1.0  0.50042  0.50030  0.41500  1.0000
  O   O4        1.0  0.50049  0.50039  0.91508  1.0000
  O   O5        1.0  0.50048  0.00051  0.11075  1.0000
  O   O6        1.0  0.50045  0.00053  0.61072  1.0000
  O   O7        1.0  0.00037  0.50049  0.11075  1.0000
  O   O8        1.0  0.00051  0.50050  0.61077  1.0000
  O   O9        1.0  0.50053  0.12408  0.34618  1.0000
  O   O10       1.0  0.50044  0.12403  0.84617  1.0000
  O   O11       1.0  0.00055  0.62409  0.34623  1.0000
  O   O12       1.0  0.00058  0.62400  0.84616  1.0000
  O   O13       1.0  0.83896  0.00039  0.15452  1.0000
  O   O14       1.0  0.83902  0.00039  0.65454  1.0000
  O   O15       1.0  0.33900  0.50038  0.15448  1.0000
  O   O16       1.0  0.33907  0.50046  0.65450  1.0000
  O   O17       1.0  0.50042  0.87691  0.34619  1.0000
  O   O18       1.0  0.50043  0.87690  0.84616  1.0000
  O   O19       1.0  0.00046  0.37692  0.34622  1.0000
  O   O20       1.0  0.00048  0.37694  0.84621  1.0000
  O   O21       1.0  0.16192  0.00036  0.15452  1.0000
  O   O22       1.0  0.16191  0.00040  0.65453  1.0000
  O   O23       1.0  0.66193  0.50039  0.15460  1.0000
  O   O24       1.0  0.66189  0.50033  0.65457  1.0000
  O   O25       1.0  0.62727  0.21013  0.10283  1.0000
  O   O26       1.0  0.62734  0.21015  0.60281  1.0000
  O   O27       1.0  0.12737  0.71003  0.10273  1.0000
  O   O28       1.0  0.12745  0.70999  0.60287  1.0000
  O   O29       1.0  0.77599  0.87886  0.39093  1.0000
  O   O30       1.0  0.77614  0.87874  0.89088  1.0000
  O   O31       1.0  0.27596  0.37887  0.39094  1.0000
  O   O32       1.0  0.27612  0.37887  0.89082  1.0000
  O   O33       1.0  0.37372  0.79088  0.10272  1.0000
  O   O34       1.0  0.37380  0.79083  0.60273  1.0000
  O   O35       1.0  0.87378  0.29063  0.10273  1.0000
  O   O36       1.0  0.87377  0.29083  0.60283  1.0000
  O   O37       1.0  0.22482  0.12198  0.39108  1.0000
  O   O38       1.0  0.22480  0.12199  0.89104  1.0000
  O   O39       1.0  0.72481  0.62204  0.39115  1.0000
  O   O40       1.0  0.72497  0.62187  0.89109  1.0000
  O   O41       1.0  0.22478  0.87884  0.39093  1.0000
  O   O42       1.0  0.22469  0.87889  0.89084  1.0000
  O   O43       1.0  0.72482  0.37890  0.39099  1.0000
  O   O44       1.0  0.72479  0.37881  0.89097  1.0000
  O   O45       1.0  0.62721  0.79064  0.10273  1.0000
  O   O46       1.0  0.62728  0.79085  0.60292  1.0000
  O   O47       1.0  0.12726  0.29089  0.10283  1.0000
  O   O48       1.0  0.12727  0.29075  0.60283  1.0000
  O   O49       1.0  0.77616  0.12205  0.39096  1.0000
  O   O50       1.0  0.77594  0.12190  0.89102  1.0000
  O   O51       1.0  0.27621  0.62205  0.39092  1.0000
  O   O52       1.0  0.27621  0.62204  0.89092  1.0000
  O   O53       1.0  0.37370  0.21020  0.10271  1.0000
  O   O54       1.0  0.37382  0.21025  0.60276  1.0000
  O   O55       1.0  0.87380  0.71022  0.10275  1.0000
  O   O56       1.0  0.87382  0.71024  0.60274  1.0000
