data_image0
_chemical_formula_structural       Ba24Y12Ta12O72
_chemical_formula_sum              "Ba24 Y12 Ta12 O72"
_cell_length_a       11.9669
_cell_length_b       11.9666
_cell_length_c       13.4138
_cell_angle_alpha    77.1168
_cell_angle_beta     102.891
_cell_angle_gamma    89.995

_space_group_name_H-M_alt    "P 1"
_space_group_IT_number       1

loop_
  _space_group_symop_operation_xyz
  'x, y, z'

loop_
  _atom_site_type_symbol
  _atom_site_label
  _atom_site_symmetry_multiplicity
  _atom_site_fract_x
  _atom_site_fract_y
  _atom_site_fract_z
  _atom_site_occupancy
  Ba  Ba1       1.0  0.04227  0.20879  0.16711  1.0000
  Ba  Ba2       1.0  0.04218  0.70878  0.16723  1.0000
  Ba  Ba3       1.0  0.54217  0.20872  0.16703  1.0000
  Ba  Ba4       1.0  0.54226  0.70838  0.16715  1.0000
  Ba  Ba5       1.0  0.37556  0.37544  0.50032  1.0000
  Ba  Ba6       1.0  0.37565  0.87539  0.50045  1.0000
  Ba  Ba7       1.0  0.20889  0.54211  0.83387  1.0000
  Ba  Ba8       1.0  0.20882  0.04193  0.83370  1.0000
  Ba  Ba9       1.0  0.87554  0.37528  0.50058  1.0000
  Ba  Ba10      1.0  0.87540  0.87530  0.50018  1.0000
  Ba  Ba11      1.0  0.70878  0.54182  0.83383  1.0000
  Ba  Ba12      1.0  0.70895  0.04197  0.83362  1.0000
  Ba  Ba13      1.0  0.29192  0.45875  0.16692  1.0000
  Ba  Ba14      1.0  0.29239  0.95868  0.16724  1.0000
  Ba  Ba15      1.0  0.79216  0.45852  0.16703  1.0000
  Ba  Ba16      1.0  0.79228  0.95856  0.16692  1.0000
  Ba  Ba17      1.0  0.62556  0.62542  0.50028  1.0000
  Ba  Ba18      1.0  0.62542  0.12539  0.50025  1.0000
  Ba  Ba19      1.0  0.45895  0.79181  0.83368  1.0000
  Ba  Ba20      1.0  0.45881  0.29186  0.83371  1.0000
  Ba  Ba21      1.0  0.12565  0.62526  0.50060  1.0000
  Ba  Ba22      1.0  0.12538  0.12545  0.50047  1.0000
  Ba  Ba23      1.0  0.95893  0.79195  0.83396  1.0000
  Ba  Ba24      1.0  0.95869  0.29197  0.83367  1.0000
  Y   Y1        1.0  0.00050  0.50045  0.00039  1.0000
  Y   Y2        1.0  0.00061  0.00040  0.00049  1.0000
  Y   Y3        1.0  0.50054  0.50032  0.00037  1.0000
  Y   Y4        1.0  0.50057  0.00032  0.00042  1.0000
  Y   Y5        1.0  0.33387  0.66695  0.33379  1.0000
  Y   Y6        1.0  0.33377  0.16696  0.33382  1.0000
  Y   Y7        1.0  0.16717  0.83361  0.66715  1.0000
  Y   Y8        1.0  0.16720  0.33368  0.66714  1.0000
  Y   Y9        1.0  0.83390  0.66691  0.33373  1.0000
  Y   Y10       1.0  0.83385  0.16702  0.33367  1.0000
  Y   Y11       1.0  0.66722  0.83362  0.66711  1.0000
  Y   Y12       1.0  0.66713  0.33364  0.66697  1.0000
  Ta  Ta1       1.0  0.25050  0.25038  0.00043  1.0000
  Ta  Ta2       1.0  0.25064  0.75038  0.00051  1.0000
  Ta  Ta3       1.0  0.75052  0.25032  0.00034  1.0000
  Ta  Ta4       1.0  0.75059  0.75036  0.00041  1.0000
  Ta  Ta5       1.0  0.58381  0.41696  0.33369  1.0000
  Ta  Ta6       1.0  0.58383  0.91700  0.33366  1.0000
  Ta  Ta7       1.0  0.41718  0.58360  0.66709  1.0000
  Ta  Ta8       1.0  0.41724  0.08354  0.66719  1.0000
  Ta  Ta9       1.0  0.08381  0.41701  0.33372  1.0000
  Ta  Ta10      1.0  0.08385  0.91696  0.33377  1.0000
  Ta  Ta11      1.0  0.91724  0.58365  0.66716  1.0000
  Ta  Ta12      1.0  0.91710  0.08363  0.66700  1.0000
  O   O1        1.0  0.37759  0.35900  0.00045  1.0000
  O   O2        1.0  0.37769  0.85897  0.00049  1.0000
  O   O3        1.0  0.87763  0.35896  0.00032  1.0000
  O   O4        1.0  0.87778  0.85890  0.00036  1.0000
  O   O5        1.0  0.71084  0.52568  0.33370  1.0000
  O   O6        1.0  0.71087  0.02567  0.33365  1.0000
  O   O7        1.0  0.54413  0.69241  0.66729  1.0000
  O   O8        1.0  0.54433  0.19213  0.66707  1.0000
  O   O9        1.0  0.21096  0.52560  0.33371  1.0000
  O   O10       1.0  0.21093  0.02553  0.33353  1.0000
  O   O11       1.0  0.04455  0.69200  0.66730  1.0000
  O   O12       1.0  0.04409  0.19241  0.66681  1.0000
  O   O13       1.0  0.14189  0.37746  0.00053  1.0000
  O   O14       1.0  0.14190  0.87741  0.00039  1.0000
  O   O15       1.0  0.64192  0.37752  0.00025  1.0000
  O   O16       1.0  0.64196  0.87738  0.00048  1.0000
  O   O17       1.0  0.47535  0.54412  0.33381  1.0000
  O   O18       1.0  0.47513  0.04403  0.33368  1.0000
  O   O19       1.0  0.30849  0.71074  0.66680  1.0000
  O   O20       1.0  0.30861  0.21068  0.66717  1.0000
  O   O21       1.0  0.97518  0.54404  0.33359  1.0000
  O   O22       1.0  0.97531  0.04407  0.33388  1.0000
  O   O23       1.0  0.80863  0.71071  0.66711  1.0000
  O   O24       1.0  0.80853  0.21075  0.66699  1.0000
  O   O25       1.0  0.35910  0.12330  0.00020  1.0000
  O   O26       1.0  0.35930  0.62334  0.00034  1.0000
  O   O27       1.0  0.85908  0.12318  0.00044  1.0000
  O   O28       1.0  0.85902  0.62311  0.00044  1.0000
  O   O29       1.0  0.69246  0.28987  0.33375  1.0000
  O   O30       1.0  0.69251  0.78989  0.33377  1.0000
  O   O31       1.0  0.52584  0.45662  0.66703  1.0000
  O   O32       1.0  0.52577  0.95641  0.66715  1.0000
  O   O33       1.0  0.19253  0.28990  0.33388  1.0000
  O   O34       1.0  0.19237  0.78981  0.33363  1.0000
  O   O35       1.0  0.02578  0.45652  0.66706  1.0000
  O   O36       1.0  0.02575  0.95654  0.66712  1.0000
  O   O37       1.0  0.12343  0.14173  0.00069  1.0000
  O   O38       1.0  0.12350  0.64174  0.00054  1.0000
  O   O39       1.0  0.62343  0.14173  0.00038  1.0000
  O   O40       1.0  0.62350  0.64169  0.00043  1.0000
  O   O41       1.0  0.45672  0.30839  0.33384  1.0000
  O   O42       1.0  0.45675  0.80835  0.33371  1.0000
  O   O43       1.0  0.29004  0.47507  0.66718  1.0000
  O   O44       1.0  0.29004  0.97504  0.66722  1.0000
  O   O45       1.0  0.95679  0.30833  0.33368  1.0000
  O   O46       1.0  0.95677  0.80829  0.33371  1.0000
  O   O47       1.0  0.79034  0.47482  0.66715  1.0000
  O   O48       1.0  0.79003  0.97509  0.66698  1.0000
  O   O49       1.0  0.04454  0.45623  0.17652  1.0000
  O   O50       1.0  0.04424  0.95617  0.17656  1.0000
  O   O51       1.0  0.54453  0.45617  0.17652  1.0000
  O   O52       1.0  0.54454  0.95626  0.17653  1.0000
  O   O53       1.0  0.37796  0.62263  0.50988  1.0000
  O   O54       1.0  0.37797  0.12268  0.50996  1.0000
  O   O55       1.0  0.21130  0.78944  0.84332  1.0000
  O   O56       1.0  0.21113  0.28963  0.84328  1.0000
  O   O57       1.0  0.87791  0.62300  0.50989  1.0000
  O   O58       1.0  0.87776  0.12293  0.50979  1.0000
  O   O59       1.0  0.71134  0.78971  0.84326  1.0000
  O   O60       1.0  0.71100  0.28959  0.84315  1.0000
  O   O61       1.0  0.28993  0.21101  0.15765  1.0000
  O   O62       1.0  0.29002  0.71090  0.15765  1.0000
  O   O63       1.0  0.78985  0.21126  0.15752  1.0000
  O   O64       1.0  0.79004  0.71119  0.15761  1.0000
  O   O65       1.0  0.62329  0.37772  0.49090  1.0000
  O   O66       1.0  0.62318  0.87764  0.49092  1.0000
  O   O67       1.0  0.45652  0.54425  0.82428  1.0000
  O   O68       1.0  0.45674  0.04424  0.82434  1.0000
  O   O69       1.0  0.12320  0.37774  0.49095  1.0000
  O   O70       1.0  0.12322  0.87762  0.49096  1.0000
  O   O71       1.0  0.95659  0.54451  0.82433  1.0000
  O   O72       1.0  0.95644  0.04456  0.82427  1.0000
