data_image0
_chemical_formula_structural       Ca24Si16Sn8O72
_chemical_formula_sum              "Ca24 Si16 Sn8 O72"
_cell_length_a       10.0854
_cell_length_b       14.6862
_cell_length_c       10.4341
_cell_angle_alpha    88.8479
_cell_angle_beta     90.0008
_cell_angle_gamma    90.0009

_space_group_name_H-M_alt    "P 1"
_space_group_IT_number       1

loop_
  _space_group_symop_operation_xyz
  'x, y, z'

loop_
  _atom_site_type_symbol
  _atom_site_label
  _atom_site_symmetry_multiplicity
  _atom_site_fract_x
  _atom_site_fract_y
  _atom_site_fract_z
  _atom_site_occupancy
  Ca  Ca1       1.0  0.92074  0.18243  0.11061  1.0000
  Ca  Ca2       1.0  0.92074  0.68242  0.11062  1.0000
  Ca  Ca3       1.0  0.42075  0.31825  0.39037  1.0000
  Ca  Ca4       1.0  0.42069  0.81825  0.39043  1.0000
  Ca  Ca5       1.0  0.08032  0.31829  0.89039  1.0000
  Ca  Ca6       1.0  0.08033  0.81825  0.89037  1.0000
  Ca  Ca7       1.0  0.58031  0.18242  0.61058  1.0000
  Ca  Ca8       1.0  0.58031  0.68241  0.61066  1.0000
  Ca  Ca9       1.0  0.33571  0.44108  0.08454  1.0000
  Ca  Ca10      1.0  0.33573  0.94107  0.08450  1.0000
  Ca  Ca11      1.0  0.83573  0.05957  0.41646  1.0000
  Ca  Ca12      1.0  0.83574  0.55958  0.41650  1.0000
  Ca  Ca13      1.0  0.66540  0.05957  0.91646  1.0000
  Ca  Ca14      1.0  0.66538  0.55954  0.91646  1.0000
  Ca  Ca15      1.0  0.16537  0.44110  0.58454  1.0000
  Ca  Ca16      1.0  0.16537  0.94106  0.58452  1.0000
  Ca  Ca17      1.0  0.30675  0.18647  0.09762  1.0000
  Ca  Ca18      1.0  0.30680  0.68648  0.09764  1.0000
  Ca  Ca19      1.0  0.80679  0.31421  0.40336  1.0000
  Ca  Ca20      1.0  0.80676  0.81417  0.40338  1.0000
  Ca  Ca21      1.0  0.69428  0.31419  0.90337  1.0000
  Ca  Ca22      1.0  0.69424  0.81417  0.90337  1.0000
  Ca  Ca23      1.0  0.19426  0.18647  0.59762  1.0000
  Ca  Ca24      1.0  0.19429  0.68646  0.59763  1.0000
  Si  Si1       1.0  0.13690  0.30006  0.30525  1.0000
  Si  Si2       1.0  0.13689  0.80003  0.30525  1.0000
  Si  Si3       1.0  0.63689  0.20059  0.19571  1.0000
  Si  Si4       1.0  0.63690  0.70055  0.19574  1.0000
  Si  Si5       1.0  0.86414  0.20060  0.69573  1.0000
  Si  Si6       1.0  0.86416  0.70059  0.69575  1.0000
  Si  Si7       1.0  0.36414  0.30005  0.80523  1.0000
  Si  Si8       1.0  0.36419  0.80007  0.80527  1.0000
  Si  Si9       1.0  0.12521  0.08391  0.31577  1.0000
  Si  Si10      1.0  0.12520  0.58391  0.31576  1.0000
  Si  Si11      1.0  0.62521  0.41672  0.18528  1.0000
  Si  Si12      1.0  0.62522  0.91668  0.18526  1.0000
  Si  Si13      1.0  0.87585  0.41673  0.68527  1.0000
  Si  Si14      1.0  0.87585  0.91671  0.68527  1.0000
  Si  Si15      1.0  0.37584  0.08393  0.81572  1.0000
  Si  Si16      1.0  0.37587  0.58394  0.81577  1.0000
  Sn  Sn1       1.0  0.55991  0.44075  0.61797  1.0000
  Sn  Sn2       1.0  0.55991  0.94077  0.61796  1.0000
  Sn  Sn3       1.0  0.05991  0.05992  0.88299  1.0000
  Sn  Sn4       1.0  0.05992  0.55992  0.88300  1.0000
  Sn  Sn5       1.0  0.44116  0.05990  0.38295  1.0000
  Sn  Sn6       1.0  0.44118  0.55991  0.38300  1.0000
  Sn  Sn7       1.0  0.94116  0.44076  0.11799  1.0000
  Sn  Sn8       1.0  0.94118  0.94073  0.11798  1.0000
  O   O1        1.0  0.39004  0.17007  0.48374  1.0000
  O   O2        1.0  0.39007  0.67006  0.48380  1.0000
  O   O3        1.0  0.89006  0.33059  0.01720  1.0000
  O   O4        1.0  0.89006  0.83057  0.01718  1.0000
  O   O5        1.0  0.61097  0.33057  0.51720  1.0000
  O   O6        1.0  0.61097  0.83058  0.51721  1.0000
  O   O7        1.0  0.11095  0.17009  0.98378  1.0000
  O   O8        1.0  0.11098  0.67009  0.98380  1.0000
  O   O9        1.0  0.11721  0.45514  0.01007  1.0000
  O   O10       1.0  0.11721  0.95511  0.01003  1.0000
  O   O11       1.0  0.61720  0.04555  0.49093  1.0000
  O   O12       1.0  0.61721  0.54556  0.49098  1.0000
  O   O13       1.0  0.88390  0.04554  0.99099  1.0000
  O   O14       1.0  0.88390  0.54556  0.99097  1.0000
  O   O15       1.0  0.38390  0.45512  0.51003  1.0000
  O   O16       1.0  0.38389  0.95512  0.51001  1.0000
  O   O17       1.0  0.16815  0.31047  0.45545  1.0000
  O   O18       1.0  0.16813  0.81043  0.45547  1.0000
  O   O19       1.0  0.66816  0.19021  0.04550  1.0000
  O   O20       1.0  0.66815  0.69018  0.04553  1.0000
  O   O21       1.0  0.83290  0.19022  0.54552  1.0000
  O   O22       1.0  0.83290  0.69020  0.54556  1.0000
  O   O23       1.0  0.33288  0.31045  0.95543  1.0000
  O   O24       1.0  0.33295  0.81045  0.95547  1.0000
  O   O25       1.0  0.99932  0.34856  0.26130  1.0000
  O   O26       1.0  0.99931  0.84850  0.26129  1.0000
  O   O27       1.0  0.49931  0.15207  0.23963  1.0000
  O   O28       1.0  0.49932  0.65203  0.23965  1.0000
  O   O29       1.0  0.89463  0.42788  0.53335  1.0000
  O   O30       1.0  0.89466  0.92785  0.53334  1.0000
  O   O31       1.0  0.00171  0.15208  0.73966  1.0000
  O   O32       1.0  0.00174  0.65209  0.73968  1.0000
  O   O33       1.0  0.23295  0.32345  0.72116  1.0000
  O   O34       1.0  0.23298  0.82342  0.72119  1.0000
  O   O35       1.0  0.73295  0.17720  0.77979  1.0000
  O   O36       1.0  0.73298  0.67718  0.77982  1.0000
  O   O37       1.0  0.76807  0.17722  0.27982  1.0000
  O   O38       1.0  0.76809  0.67720  0.27982  1.0000
  O   O39       1.0  0.26809  0.32340  0.22114  1.0000
  O   O40       1.0  0.26807  0.82343  0.22116  1.0000
  O   O41       1.0  0.76962  0.44897  0.23804  1.0000
  O   O42       1.0  0.76961  0.94895  0.23802  1.0000
  O   O43       1.0  0.26960  0.05164  0.26297  1.0000
  O   O44       1.0  0.26961  0.55164  0.26302  1.0000
  O   O45       1.0  0.23142  0.05166  0.76298  1.0000
  O   O46       1.0  0.23143  0.55173  0.76299  1.0000
  O   O47       1.0  0.73144  0.44900  0.73801  1.0000
  O   O48       1.0  0.73145  0.94899  0.73801  1.0000
  O   O49       1.0  0.39246  0.19190  0.76987  1.0000
  O   O50       1.0  0.39259  0.69191  0.76994  1.0000
  O   O51       1.0  0.89248  0.30875  0.73111  1.0000
  O   O52       1.0  0.89250  0.80874  0.73109  1.0000
  O   O53       1.0  0.60850  0.30873  0.23107  1.0000
  O   O54       1.0  0.60851  0.80870  0.23105  1.0000
  O   O55       1.0  0.10852  0.19189  0.26997  1.0000
  O   O56       1.0  0.10857  0.69188  0.26992  1.0000
  O   O57       1.0  0.00263  0.45835  0.76042  1.0000
  O   O58       1.0  0.00261  0.95834  0.76041  1.0000
  O   O59       1.0  0.50261  0.04231  0.74058  1.0000
  O   O60       1.0  0.50260  0.54228  0.74062  1.0000
  O   O61       1.0  0.99846  0.04227  0.24061  1.0000
  O   O62       1.0  0.99844  0.54229  0.24061  1.0000
  O   O63       1.0  0.49844  0.45833  0.26045  1.0000
  O   O64       1.0  0.49846  0.95832  0.26040  1.0000
  O   O65       1.0  0.60640  0.42788  0.03335  1.0000
  O   O66       1.0  0.60642  0.92786  0.03333  1.0000
  O   O67       1.0  0.10639  0.07276  0.46769  1.0000
  O   O68       1.0  0.10638  0.57277  0.46769  1.0000
  O   O69       1.0  0.39461  0.07280  0.96766  1.0000
  O   O70       1.0  0.39463  0.57277  0.96769  1.0000
  O   O71       1.0  0.50173  0.34855  0.76129  1.0000
  O   O72       1.0  0.50174  0.84858  0.76129  1.0000
