data_image0
_chemical_formula_structural       Ba48Al16O64
_chemical_formula_sum              "Ba48 Al16 O64"
_cell_length_a       10.5704
_cell_length_b       16.4871
_cell_length_c       14.5836
_cell_angle_alpha    89.9961
_cell_angle_beta     89.9984
_cell_angle_gamma    90

_space_group_name_H-M_alt    "P 1"
_space_group_IT_number       1

loop_
  _space_group_symop_operation_xyz
  'x, y, z'

loop_
  _atom_site_type_symbol
  _atom_site_label
  _atom_site_symmetry_multiplicity
  _atom_site_fract_x
  _atom_site_fract_y
  _atom_site_fract_z
  _atom_site_occupancy
  Ba  Ba1       1.0  0.33395  0.26351  0.44931  1.0000
  Ba  Ba2       1.0  0.33394  0.26350  0.94930  1.0000
  Ba  Ba3       1.0  0.33392  0.76352  0.44930  1.0000
  Ba  Ba4       1.0  0.33397  0.76348  0.94931  1.0000
  Ba  Ba5       1.0  0.83390  0.48715  0.30138  1.0000
  Ba  Ba6       1.0  0.83387  0.48709  0.80137  1.0000
  Ba  Ba7       1.0  0.83398  0.98712  0.30142  1.0000
  Ba  Ba8       1.0  0.83394  0.98711  0.80143  1.0000
  Ba  Ba9       1.0  0.66699  0.01347  0.05146  1.0000
  Ba  Ba10      1.0  0.66690  0.01353  0.55140  1.0000
  Ba  Ba11      1.0  0.66694  0.51349  0.05141  1.0000
  Ba  Ba12      1.0  0.66693  0.51351  0.55137  1.0000
  Ba  Ba13      1.0  0.16694  0.23713  0.19931  1.0000
  Ba  Ba14      1.0  0.16694  0.23713  0.69929  1.0000
  Ba  Ba15      1.0  0.16687  0.73708  0.19929  1.0000
  Ba  Ba16      1.0  0.16694  0.73710  0.69932  1.0000
  Ba  Ba17      1.0  0.66698  0.23711  0.05140  1.0000
  Ba  Ba18      1.0  0.66698  0.23714  0.55142  1.0000
  Ba  Ba19      1.0  0.66694  0.73713  0.05135  1.0000
  Ba  Ba20      1.0  0.66701  0.73711  0.55138  1.0000
  Ba  Ba21      1.0  0.16696  0.01350  0.19934  1.0000
  Ba  Ba22      1.0  0.16699  0.01351  0.69934  1.0000
  Ba  Ba23      1.0  0.16694  0.51348  0.19930  1.0000
  Ba  Ba24      1.0  0.16694  0.51348  0.69929  1.0000
  Ba  Ba25      1.0  0.33385  0.48715  0.44930  1.0000
  Ba  Ba26      1.0  0.33392  0.48711  0.94928  1.0000
  Ba  Ba27      1.0  0.33390  0.98714  0.44934  1.0000
  Ba  Ba28      1.0  0.33392  0.98708  0.94931  1.0000
  Ba  Ba29      1.0  0.83388  0.26352  0.30138  1.0000
  Ba  Ba30      1.0  0.83395  0.26349  0.80141  1.0000
  Ba  Ba31      1.0  0.83389  0.76349  0.30139  1.0000
  Ba  Ba32      1.0  0.83398  0.76352  0.80144  1.0000
  Ba  Ba33      1.0  0.46447  0.37530  0.20089  1.0000
  Ba  Ba34      1.0  0.46446  0.37532  0.70093  1.0000
  Ba  Ba35      1.0  0.46449  0.87532  0.20091  1.0000
  Ba  Ba36      1.0  0.46454  0.87532  0.70090  1.0000
  Ba  Ba37      1.0  0.96452  0.37530  0.04980  1.0000
  Ba  Ba38      1.0  0.96448  0.37532  0.54979  1.0000
  Ba  Ba39      1.0  0.96453  0.87530  0.04981  1.0000
  Ba  Ba40      1.0  0.96451  0.87533  0.54981  1.0000
  Ba  Ba41      1.0  0.53638  0.12532  0.29980  1.0000
  Ba  Ba42      1.0  0.53640  0.12530  0.79981  1.0000
  Ba  Ba43      1.0  0.53633  0.62532  0.29980  1.0000
  Ba  Ba44      1.0  0.53637  0.62531  0.79978  1.0000
  Ba  Ba45      1.0  0.03639  0.12534  0.45090  1.0000
  Ba  Ba46      1.0  0.03638  0.12530  0.95091  1.0000
  Ba  Ba47      1.0  0.03635  0.62533  0.45088  1.0000
  Ba  Ba48      1.0  0.03641  0.62529  0.95090  1.0000
  Al  Al1       1.0  0.10501  0.37532  0.34418  1.0000
  Al  Al2       1.0  0.10503  0.37529  0.84422  1.0000
  Al  Al3       1.0  0.10504  0.87531  0.34422  1.0000
  Al  Al4       1.0  0.10508  0.87531  0.84422  1.0000
  Al  Al5       1.0  0.60501  0.37534  0.40648  1.0000
  Al  Al6       1.0  0.60501  0.37528  0.90651  1.0000
  Al  Al7       1.0  0.60499  0.87532  0.40650  1.0000
  Al  Al8       1.0  0.60511  0.87532  0.90649  1.0000
  Al  Al9       1.0  0.89588  0.12533  0.15651  1.0000
  Al  Al10      1.0  0.89585  0.12533  0.65647  1.0000
  Al  Al11      1.0  0.89581  0.62531  0.15648  1.0000
  Al  Al12      1.0  0.89581  0.62532  0.65648  1.0000
  Al  Al13      1.0  0.39587  0.12529  0.09423  1.0000
  Al  Al14      1.0  0.39586  0.12532  0.59421  1.0000
  Al  Al15      1.0  0.39575  0.62529  0.09419  1.0000
  Al  Al16      1.0  0.39578  0.62530  0.59421  1.0000
  O   O1        1.0  0.07516  0.28375  0.40259  1.0000
  O   O2        1.0  0.07513  0.28370  0.90257  1.0000
  O   O3        1.0  0.07517  0.78369  0.40255  1.0000
  O   O4        1.0  0.07518  0.78370  0.90254  1.0000
  O   O5        1.0  0.57516  0.46693  0.34811  1.0000
  O   O6        1.0  0.57517  0.46685  0.84812  1.0000
  O   O7        1.0  0.57519  0.96696  0.34820  1.0000
  O   O8        1.0  0.57522  0.96689  0.84810  1.0000
  O   O9        1.0  0.92567  0.03369  0.09821  1.0000
  O   O10       1.0  0.92569  0.03372  0.59812  1.0000
  O   O11       1.0  0.92562  0.53370  0.09810  1.0000
  O   O12       1.0  0.92569  0.53372  0.59812  1.0000
  O   O13       1.0  0.42572  0.21693  0.15253  1.0000
  O   O14       1.0  0.42572  0.21695  0.65258  1.0000
  O   O15       1.0  0.42566  0.71691  0.15252  1.0000
  O   O16       1.0  0.42569  0.71691  0.65259  1.0000
  O   O17       1.0  0.92572  0.21691  0.09813  1.0000
  O   O18       1.0  0.92570  0.21694  0.59814  1.0000
  O   O19       1.0  0.92571  0.71690  0.09810  1.0000
  O   O20       1.0  0.92565  0.71696  0.59821  1.0000
  O   O21       1.0  0.42571  0.03368  0.15261  1.0000
  O   O22       1.0  0.42576  0.03371  0.65255  1.0000
  O   O23       1.0  0.42568  0.53373  0.15260  1.0000
  O   O24       1.0  0.42563  0.53371  0.65256  1.0000
  O   O25       1.0  0.07512  0.46694  0.40254  1.0000
  O   O26       1.0  0.07518  0.46691  0.90257  1.0000
  O   O27       1.0  0.07518  0.96694  0.40256  1.0000
  O   O28       1.0  0.07523  0.96691  0.90261  1.0000
  O   O29       1.0  0.57514  0.28374  0.34812  1.0000
  O   O30       1.0  0.57520  0.28366  0.84816  1.0000
  O   O31       1.0  0.57512  0.78371  0.34811  1.0000
  O   O32       1.0  0.57524  0.78366  0.84818  1.0000
  O   O33       1.0  0.01334  0.37528  0.24186  1.0000
  O   O34       1.0  0.01337  0.37530  0.74188  1.0000
  O   O35       1.0  0.01343  0.87530  0.24187  1.0000
  O   O36       1.0  0.01343  0.87532  0.74190  1.0000
  O   O37       1.0  0.51339  0.37532  0.00885  1.0000
  O   O38       1.0  0.51335  0.37535  0.50880  1.0000
  O   O39       1.0  0.51347  0.87533  0.00885  1.0000
  O   O40       1.0  0.51344  0.87532  0.50888  1.0000
  O   O41       1.0  0.98748  0.12533  0.25886  1.0000
  O   O42       1.0  0.98745  0.12531  0.75882  1.0000
  O   O43       1.0  0.98747  0.62530  0.25883  1.0000
  O   O44       1.0  0.98742  0.62528  0.75884  1.0000
  O   O45       1.0  0.48751  0.12536  0.49184  1.0000
  O   O46       1.0  0.48747  0.12526  0.99186  1.0000
  O   O47       1.0  0.48740  0.62532  0.49186  1.0000
  O   O48       1.0  0.48748  0.62529  0.99185  1.0000
  O   O49       1.0  0.26816  0.37532  0.31341  1.0000
  O   O50       1.0  0.26817  0.37528  0.81342  1.0000
  O   O51       1.0  0.26819  0.87529  0.31346  1.0000
  O   O52       1.0  0.26821  0.87528  0.81347  1.0000
  O   O53       1.0  0.76816  0.37533  0.43727  1.0000
  O   O54       1.0  0.76807  0.37534  0.93726  1.0000
  O   O55       1.0  0.76813  0.87532  0.43724  1.0000
  O   O56       1.0  0.76824  0.87535  0.93725  1.0000
  O   O57       1.0  0.73277  0.12534  0.18727  1.0000
  O   O58       1.0  0.73274  0.12531  0.68726  1.0000
  O   O59       1.0  0.73269  0.62534  0.18722  1.0000
  O   O60       1.0  0.73272  0.62526  0.68725  1.0000
  O   O61       1.0  0.23279  0.12528  0.06346  1.0000
  O   O62       1.0  0.23272  0.12532  0.56348  1.0000
  O   O63       1.0  0.23262  0.62529  0.06343  1.0000
  O   O64       1.0  0.23269  0.62535  0.56346  1.0000
