data_image0
_chemical_formula_structural       In16Ga16Sn16O80
_chemical_formula_sum              "In16 Ga16 Sn16 O80"
_cell_length_a       12.9035
_cell_length_b       10.9069
_cell_length_c       11.856
_cell_angle_alpha    80.9664
_cell_angle_beta     89.9991
_cell_angle_gamma    90.0006

_space_group_name_H-M_alt    "P 1"
_space_group_IT_number       1

loop_
  _space_group_symop_operation_xyz
  'x, y, z'

loop_
  _atom_site_type_symbol
  _atom_site_label
  _atom_site_symmetry_multiplicity
  _atom_site_fract_x
  _atom_site_fract_y
  _atom_site_fract_z
  _atom_site_occupancy
  In  In1       1.0  0.12538  0.69683  0.07724  1.0000
  In  In2       1.0  0.37539  0.69680  0.07722  1.0000
  In  In3       1.0  0.62539  0.69683  0.07724  1.0000
  In  In4       1.0  0.87537  0.69681  0.07722  1.0000
  In  In5       1.0  0.12542  0.30390  0.92344  1.0000
  In  In6       1.0  0.37539  0.30387  0.92347  1.0000
  In  In7       1.0  0.62540  0.30391  0.92346  1.0000
  In  In8       1.0  0.87542  0.30391  0.92348  1.0000
  In  In9       1.0  0.00037  0.61845  0.33010  1.0000
  In  In10      1.0  0.25037  0.61842  0.33010  1.0000
  In  In11      1.0  0.50037  0.61841  0.33012  1.0000
  In  In12      1.0  0.75038  0.61841  0.33012  1.0000
  In  In13      1.0  0.00041  0.38257  0.67057  1.0000
  In  In14      1.0  0.25040  0.38254  0.67057  1.0000
  In  In15      1.0  0.50039  0.38257  0.67057  1.0000
  In  In16      1.0  0.75037  0.38253  0.67058  1.0000
  Ga  Ga1       1.0  0.12534  0.91554  0.26481  1.0000
  Ga  Ga2       1.0  0.37534  0.91555  0.26479  1.0000
  Ga  Ga3       1.0  0.62534  0.91554  0.26482  1.0000
  Ga  Ga4       1.0  0.87532  0.91553  0.26481  1.0000
  Ga  Ga5       1.0  0.12536  0.08529  0.73615  1.0000
  Ga  Ga6       1.0  0.37536  0.08534  0.73613  1.0000
  Ga  Ga7       1.0  0.62535  0.08531  0.73617  1.0000
  Ga  Ga8       1.0  0.87536  0.08534  0.73612  1.0000
  Ga  Ga9       1.0  0.00036  0.40023  0.15246  1.0000
  Ga  Ga10      1.0  0.25034  0.40023  0.15242  1.0000
  Ga  Ga11      1.0  0.50035  0.40019  0.15247  1.0000
  Ga  Ga12      1.0  0.75035  0.40019  0.15243  1.0000
  Ga  Ga13      1.0  0.00048  0.60035  0.84824  1.0000
  Ga  Ga14      1.0  0.25047  0.60036  0.84824  1.0000
  Ga  Ga15      1.0  0.50050  0.60034  0.84828  1.0000
  Ga  Ga16      1.0  0.75050  0.60034  0.84823  1.0000
  Sn  Sn1       1.0  0.00036  0.00035  0.00046  1.0000
  Sn  Sn2       1.0  0.25037  0.00034  0.00045  1.0000
  Sn  Sn3       1.0  0.50036  0.00036  0.00047  1.0000
  Sn  Sn4       1.0  0.75036  0.00036  0.00045  1.0000
  Sn  Sn5       1.0  0.00035  0.00050  0.50042  1.0000
  Sn  Sn6       1.0  0.25035  0.00054  0.50042  1.0000
  Sn  Sn7       1.0  0.50035  0.00050  0.50044  1.0000
  Sn  Sn8       1.0  0.75036  0.00051  0.50044  1.0000
  Sn  Sn9       1.0  0.12537  0.69162  0.59293  1.0000
  Sn  Sn10      1.0  0.37537  0.69162  0.59296  1.0000
  Sn  Sn11      1.0  0.62538  0.69161  0.59299  1.0000
  Sn  Sn12      1.0  0.87537  0.69160  0.59297  1.0000
  Sn  Sn13      1.0  0.12533  0.30940  0.40775  1.0000
  Sn  Sn14      1.0  0.37532  0.30940  0.40778  1.0000
  Sn  Sn15      1.0  0.62533  0.30938  0.40779  1.0000
  Sn  Sn16      1.0  0.87533  0.30941  0.40778  1.0000
  O   O1        1.0  0.00036  0.69073  0.48482  1.0000
  O   O2        1.0  0.25038  0.69076  0.48480  1.0000
  O   O3        1.0  0.50038  0.69071  0.48486  1.0000
  O   O4        1.0  0.75036  0.69074  0.48484  1.0000
  O   O5        1.0  0.00035  0.31029  0.51587  1.0000
  O   O6        1.0  0.25034  0.31031  0.51586  1.0000
  O   O7        1.0  0.50033  0.31030  0.51589  1.0000
  O   O8        1.0  0.75033  0.31030  0.51587  1.0000
  O   O9        1.0  0.12535  0.88482  0.54770  1.0000
  O   O10       1.0  0.37536  0.88484  0.54766  1.0000
  O   O11       1.0  0.62538  0.88482  0.54771  1.0000
  O   O12       1.0  0.87537  0.88480  0.54768  1.0000
  O   O13       1.0  0.12536  0.11619  0.45311  1.0000
  O   O14       1.0  0.37536  0.11621  0.45315  1.0000
  O   O15       1.0  0.62533  0.11619  0.45314  1.0000
  O   O16       1.0  0.87534  0.11619  0.45313  1.0000
  O   O17       1.0  0.00041  0.57287  0.15055  1.0000
  O   O18       1.0  0.25040  0.57287  0.15052  1.0000
  O   O19       1.0  0.50039  0.57284  0.15057  1.0000
  O   O20       1.0  0.75039  0.57284  0.15056  1.0000
  O   O21       1.0  0.00044  0.42780  0.85016  1.0000
  O   O22       1.0  0.25043  0.42781  0.85016  1.0000
  O   O23       1.0  0.50040  0.42779  0.85017  1.0000
  O   O24       1.0  0.75042  0.42778  0.85017  1.0000
  O   O25       1.0  0.12538  0.99758  0.11583  1.0000
  O   O26       1.0  0.37536  0.99758  0.11581  1.0000
  O   O27       1.0  0.62537  0.99758  0.11584  1.0000
  O   O28       1.0  0.87535  0.99756  0.11582  1.0000
  O   O29       1.0  0.12537  0.00323  0.88509  1.0000
  O   O30       1.0  0.37539  0.00321  0.88506  1.0000
  O   O31       1.0  0.62536  0.00320  0.88509  1.0000
  O   O32       1.0  0.87537  0.00317  0.88504  1.0000
  O   O33       1.0  0.12533  0.74629  0.25741  1.0000
  O   O34       1.0  0.37534  0.74631  0.25739  1.0000
  O   O35       1.0  0.62536  0.74630  0.25739  1.0000
  O   O36       1.0  0.87538  0.74630  0.25737  1.0000
  O   O37       1.0  0.12537  0.25458  0.74333  1.0000
  O   O38       1.0  0.37537  0.25462  0.74330  1.0000
  O   O39       1.0  0.62539  0.25460  0.74329  1.0000
  O   O40       1.0  0.87537  0.25464  0.74330  1.0000
  O   O41       1.0  0.12537  0.49529  0.36283  1.0000
  O   O42       1.0  0.37537  0.49528  0.36285  1.0000
  O   O43       1.0  0.62539  0.49527  0.36286  1.0000
  O   O44       1.0  0.87540  0.49530  0.36283  1.0000
  O   O45       1.0  0.12543  0.50570  0.63792  1.0000
  O   O46       1.0  0.37540  0.50571  0.63796  1.0000
  O   O47       1.0  0.62540  0.50570  0.63796  1.0000
  O   O48       1.0  0.87539  0.50570  0.63797  1.0000
  O   O49       1.0  0.00037  0.81498  0.02890  1.0000
  O   O50       1.0  0.25039  0.81498  0.02890  1.0000
  O   O51       1.0  0.50038  0.81499  0.02890  1.0000
  O   O52       1.0  0.75038  0.81499  0.02888  1.0000
  O   O53       1.0  0.00041  0.18576  0.97190  1.0000
  O   O54       1.0  0.25039  0.18574  0.97194  1.0000
  O   O55       1.0  0.50040  0.18576  0.97190  1.0000
  O   O56       1.0  0.75041  0.18576  0.97192  1.0000
  O   O57       1.0  0.00034  0.30013  0.29473  1.0000
  O   O58       1.0  0.25036  0.30019  0.29471  1.0000
  O   O59       1.0  0.50032  0.30019  0.29476  1.0000
  O   O60       1.0  0.75036  0.30019  0.29474  1.0000
  O   O61       1.0  0.00040  0.70067  0.70603  1.0000
  O   O62       1.0  0.25038  0.70065  0.70601  1.0000
  O   O63       1.0  0.50041  0.70068  0.70607  1.0000
  O   O64       1.0  0.75040  0.70068  0.70604  1.0000
  O   O65       1.0  0.00033  0.95284  0.33454  1.0000
  O   O66       1.0  0.25036  0.95283  0.33454  1.0000
  O   O67       1.0  0.50034  0.95286  0.33453  1.0000
  O   O68       1.0  0.75034  0.95283  0.33457  1.0000
  O   O69       1.0  0.00037  0.04811  0.66631  1.0000
  O   O70       1.0  0.25037  0.04807  0.66634  1.0000
  O   O71       1.0  0.50036  0.04814  0.66631  1.0000
  O   O72       1.0  0.75036  0.04815  0.66631  1.0000
  O   O73       1.0  0.12535  0.37178  0.08404  1.0000
  O   O74       1.0  0.37536  0.37181  0.08405  1.0000
  O   O75       1.0  0.62535  0.37178  0.08405  1.0000
  O   O76       1.0  0.87537  0.37175  0.08409  1.0000
  O   O77       1.0  0.12546  0.62897  0.91659  1.0000
  O   O78       1.0  0.37547  0.62897  0.91658  1.0000
  O   O79       1.0  0.62550  0.62895  0.91661  1.0000
  O   O80       1.0  0.87547  0.62897  0.91658  1.0000
