data_image0
_chemical_formula_structural       Cs64Mg32O64
_chemical_formula_sum              "Cs64 Mg32 O64"
_cell_length_a       13.4286
_cell_length_b       20.0096
_cell_length_c       14.7172
_cell_angle_alpha    99.1276
_cell_angle_beta     90.0024
_cell_angle_gamma    89.9991

_space_group_name_H-M_alt    "P 1"
_space_group_IT_number       1

loop_
  _space_group_symop_operation_xyz
  'x, y, z'

loop_
  _atom_site_type_symbol
  _atom_site_label
  _atom_site_symmetry_multiplicity
  _atom_site_fract_x
  _atom_site_fract_y
  _atom_site_fract_z
  _atom_site_occupancy
  Cs  Cs1       1.0  0.16872  0.91044  0.97118  1.0000
  Cs  Cs2       1.0  0.16870  0.41044  0.97113  1.0000
  Cs  Cs3       1.0  0.66867  0.91043  0.97110  1.0000
  Cs  Cs4       1.0  0.66869  0.41044  0.97117  1.0000
  Cs  Cs5       1.0  0.43427  0.88069  0.83367  1.0000
  Cs  Cs6       1.0  0.43423  0.38069  0.83372  1.0000
  Cs  Cs7       1.0  0.93431  0.88070  0.83372  1.0000
  Cs  Cs8       1.0  0.93420  0.38071  0.83375  1.0000
  Cs  Cs9       1.0  0.04481  0.71029  0.73725  1.0000
  Cs  Cs10      1.0  0.04479  0.21031  0.73722  1.0000
  Cs  Cs11      1.0  0.54488  0.71029  0.73729  1.0000
  Cs  Cs12      1.0  0.54483  0.21033  0.73724  1.0000
  Cs  Cs13      1.0  0.28797  0.72740  0.87692  1.0000
  Cs  Cs14      1.0  0.28793  0.22735  0.87683  1.0000
  Cs  Cs15      1.0  0.78803  0.72739  0.87697  1.0000
  Cs  Cs16      1.0  0.78800  0.22735  0.87690  1.0000
  Cs  Cs17      1.0  0.08204  0.66047  0.47120  1.0000
  Cs  Cs18      1.0  0.08207  0.16043  0.47112  1.0000
  Cs  Cs19      1.0  0.58202  0.66044  0.47118  1.0000
  Cs  Cs20      1.0  0.58207  0.16044  0.47115  1.0000
  Cs  Cs21      1.0  0.31651  0.63070  0.33376  1.0000
  Cs  Cs22      1.0  0.31654  0.13073  0.33369  1.0000
  Cs  Cs23      1.0  0.81646  0.63070  0.33377  1.0000
  Cs  Cs24      1.0  0.81654  0.13070  0.33376  1.0000
  Cs  Cs25      1.0  0.03797  0.52320  0.62373  1.0000
  Cs  Cs26      1.0  0.03804  0.02316  0.62373  1.0000
  Cs  Cs27      1.0  0.53795  0.52318  0.62373  1.0000
  Cs  Cs28      1.0  0.53795  0.02319  0.62372  1.0000
  Cs  Cs29      1.0  0.29484  0.54027  0.76343  1.0000
  Cs  Cs30      1.0  0.29487  0.04024  0.76335  1.0000
  Cs  Cs31      1.0  0.79487  0.54025  0.76344  1.0000
  Cs  Cs32      1.0  0.79487  0.04025  0.76338  1.0000
  Cs  Cs33      1.0  0.20589  0.46032  0.23728  1.0000
  Cs  Cs34      1.0  0.20581  0.96035  0.23728  1.0000
  Cs  Cs35      1.0  0.70584  0.46032  0.23729  1.0000
  Cs  Cs36      1.0  0.70585  0.96031  0.23726  1.0000
  Cs  Cs37      1.0  0.46270  0.47735  0.37694  1.0000
  Cs  Cs38      1.0  0.46274  0.97737  0.37689  1.0000
  Cs  Cs39      1.0  0.96275  0.47736  0.37694  1.0000
  Cs  Cs40      1.0  0.96268  0.97733  0.37693  1.0000
  Cs  Cs41      1.0  0.18421  0.36988  0.66692  1.0000
  Cs  Cs42      1.0  0.18424  0.86985  0.66689  1.0000
  Cs  Cs43      1.0  0.68422  0.36988  0.66695  1.0000
  Cs  Cs44      1.0  0.68421  0.86990  0.66687  1.0000
  Cs  Cs45      1.0  0.41867  0.34012  0.52958  1.0000
  Cs  Cs46      1.0  0.41867  0.84011  0.52953  1.0000
  Cs  Cs47      1.0  0.91864  0.34015  0.52958  1.0000
  Cs  Cs48      1.0  0.91867  0.84009  0.52955  1.0000
  Cs  Cs49      1.0  0.21277  0.27317  0.12372  1.0000
  Cs  Cs50      1.0  0.21264  0.77317  0.12384  1.0000
  Cs  Cs51      1.0  0.71274  0.27320  0.12373  1.0000
  Cs  Cs52      1.0  0.71265  0.77321  0.12379  1.0000
  Cs  Cs53      1.0  0.45591  0.29026  0.26342  1.0000
  Cs  Cs54      1.0  0.45582  0.79025  0.26341  1.0000
  Cs  Cs55      1.0  0.95583  0.29026  0.26341  1.0000
  Cs  Cs56      1.0  0.95582  0.79021  0.26339  1.0000
  Cs  Cs57      1.0  0.06646  0.11990  0.16692  1.0000
  Cs  Cs58      1.0  0.06645  0.61983  0.16697  1.0000
  Cs  Cs59      1.0  0.56652  0.11987  0.16690  1.0000
  Cs  Cs60      1.0  0.56647  0.61988  0.16694  1.0000
  Cs  Cs61      1.0  0.33206  0.09011  0.02952  1.0000
  Cs  Cs62      1.0  0.33207  0.59013  0.02954  1.0000
  Cs  Cs63      1.0  0.83204  0.09011  0.02955  1.0000
  Cs  Cs64      1.0  0.83202  0.59010  0.02954  1.0000
  Mg  Mg1       1.0  0.31547  0.68776  0.62359  1.0000
  Mg  Mg2       1.0  0.31545  0.18778  0.62356  1.0000
  Mg  Mg3       1.0  0.81544  0.68778  0.62364  1.0000
  Mg  Mg4       1.0  0.81545  0.18778  0.62359  1.0000
  Mg  Mg5       1.0  0.02636  0.68810  0.96032  1.0000
  Mg  Mg6       1.0  0.02640  0.18811  0.96028  1.0000
  Mg  Mg7       1.0  0.52634  0.68814  0.96031  1.0000
  Mg  Mg8       1.0  0.52639  0.18814  0.96028  1.0000
  Mg  Mg9       1.0  0.27632  0.56243  0.54037  1.0000
  Mg  Mg10      1.0  0.27635  0.06246  0.54032  1.0000
  Mg  Mg11      1.0  0.77633  0.56244  0.54039  1.0000
  Mg  Mg12      1.0  0.77636  0.06243  0.54034  1.0000
  Mg  Mg13      1.0  0.06546  0.56277  0.87709  1.0000
  Mg  Mg14      1.0  0.06551  0.06278  0.87704  1.0000
  Mg  Mg15      1.0  0.56547  0.56280  0.87706  1.0000
  Mg  Mg16      1.0  0.56551  0.06280  0.87704  1.0000
  Mg  Mg17      1.0  0.43526  0.43778  0.12358  1.0000
  Mg  Mg18      1.0  0.43526  0.93780  0.12360  1.0000
  Mg  Mg19      1.0  0.93527  0.43777  0.12361  1.0000
  Mg  Mg20      1.0  0.93527  0.93778  0.12361  1.0000
  Mg  Mg21      1.0  0.22433  0.43810  0.46032  1.0000
  Mg  Mg22      1.0  0.22437  0.93811  0.46029  1.0000
  Mg  Mg23      1.0  0.72434  0.43811  0.46035  1.0000
  Mg  Mg24      1.0  0.72436  0.93810  0.46027  1.0000
  Mg  Mg25      1.0  0.47439  0.31244  0.04032  1.0000
  Mg  Mg26      1.0  0.47436  0.81246  0.04034  1.0000
  Mg  Mg27      1.0  0.97441  0.31243  0.04033  1.0000
  Mg  Mg28      1.0  0.97436  0.81244  0.04034  1.0000
  Mg  Mg29      1.0  0.18523  0.31276  0.37703  1.0000
  Mg  Mg30      1.0  0.18520  0.81276  0.37708  1.0000
  Mg  Mg31      1.0  0.68525  0.31277  0.37709  1.0000
  Mg  Mg32      1.0  0.68523  0.81276  0.37708  1.0000
  O   O1        1.0  0.34505  0.77342  0.69076  1.0000
  O   O2        1.0  0.34502  0.27342  0.69077  1.0000
  O   O3        1.0  0.84499  0.77342  0.69081  1.0000
  O   O4        1.0  0.84501  0.27343  0.69080  1.0000
  O   O5        1.0  0.05675  0.77930  0.93054  1.0000
  O   O6        1.0  0.05676  0.27929  0.93051  1.0000
  O   O7        1.0  0.55671  0.77932  0.93054  1.0000
  O   O8        1.0  0.55674  0.27932  0.93053  1.0000
  O   O9        1.0  0.38531  0.62829  0.52807  1.0000
  O   O10       1.0  0.38538  0.12831  0.52807  1.0000
  O   O11       1.0  0.88535  0.62830  0.52813  1.0000
  O   O12       1.0  0.88536  0.12830  0.52811  1.0000
  O   O13       1.0  0.20747  0.62730  0.63907  1.0000
  O   O14       1.0  0.20746  0.12731  0.63898  1.0000
  O   O15       1.0  0.70745  0.62730  0.63907  1.0000
  O   O16       1.0  0.70746  0.12729  0.63902  1.0000
  O   O17       1.0  0.45748  0.62326  0.86162  1.0000
  O   O18       1.0  0.45747  0.12326  0.86162  1.0000
  O   O19       1.0  0.95748  0.62327  0.86163  1.0000
  O   O20       1.0  0.95747  0.12324  0.86161  1.0000
  O   O21       1.0  0.13534  0.62224  0.97262  1.0000
  O   O22       1.0  0.13541  0.12226  0.97253  1.0000
  O   O23       1.0  0.63535  0.62226  0.97257  1.0000
  O   O24       1.0  0.63542  0.12226  0.97251  1.0000
  O   O25       1.0  0.40570  0.52342  0.19080  1.0000
  O   O26       1.0  0.40572  0.02345  0.19082  1.0000
  O   O27       1.0  0.90568  0.52342  0.19081  1.0000
  O   O28       1.0  0.90566  0.02341  0.19085  1.0000
  O   O29       1.0  0.19390  0.52929  0.43056  1.0000
  O   O30       1.0  0.19397  0.02930  0.43051  1.0000
  O   O31       1.0  0.69389  0.52930  0.43059  1.0000
  O   O32       1.0  0.69400  0.02930  0.43051  1.0000
  O   O33       1.0  0.30669  0.47123  0.57011  1.0000
  O   O34       1.0  0.30679  0.97126  0.57009  1.0000
  O   O35       1.0  0.80672  0.47125  0.57014  1.0000
  O   O36       1.0  0.80675  0.97122  0.57009  1.0000
  O   O37       1.0  0.09500  0.47714  0.80987  1.0000
  O   O38       1.0  0.09509  0.97715  0.80983  1.0000
  O   O39       1.0  0.59500  0.47713  0.80986  1.0000
  O   O40       1.0  0.59504  0.97714  0.80983  1.0000
  O   O41       1.0  0.36538  0.37832  0.02810  1.0000
  O   O42       1.0  0.36537  0.87834  0.02807  1.0000
  O   O43       1.0  0.86537  0.37829  0.02810  1.0000
  O   O44       1.0  0.86536  0.87833  0.02808  1.0000
  O   O45       1.0  0.04328  0.37732  0.13902  1.0000
  O   O46       1.0  0.04323  0.87730  0.13904  1.0000
  O   O47       1.0  0.54326  0.37730  0.13904  1.0000
  O   O48       1.0  0.54321  0.87731  0.13905  1.0000
  O   O49       1.0  0.29324  0.37324  0.36163  1.0000
  O   O50       1.0  0.29318  0.87324  0.36162  1.0000
  O   O51       1.0  0.79319  0.37325  0.36162  1.0000
  O   O52       1.0  0.79322  0.87322  0.36159  1.0000
  O   O53       1.0  0.11532  0.37223  0.47253  1.0000
  O   O54       1.0  0.11534  0.87228  0.47259  1.0000
  O   O55       1.0  0.61535  0.37224  0.47262  1.0000
  O   O56       1.0  0.61534  0.87226  0.47255  1.0000
  O   O57       1.0  0.44403  0.22124  0.07012  1.0000
  O   O58       1.0  0.44397  0.72126  0.07014  1.0000
  O   O59       1.0  0.94403  0.22123  0.07011  1.0000
  O   O60       1.0  0.94393  0.72125  0.07011  1.0000
  O   O61       1.0  0.15567  0.22713  0.30981  1.0000
  O   O62       1.0  0.15566  0.72711  0.30989  1.0000
  O   O63       1.0  0.65572  0.22713  0.30988  1.0000
  O   O64       1.0  0.65568  0.72710  0.30991  1.0000
