data_image0
_chemical_formula_structural       Ba24Ca8Nb16O72
_chemical_formula_sum              "Ba24 Ca8 Nb16 O72"
_cell_length_a       11.9079
_cell_length_b       10.3129
_cell_length_c       14.6937
_cell_angle_alpha    90.0004
_cell_angle_beta     89.9998
_cell_angle_gamma    89.9998

_space_group_name_H-M_alt    "P 1"
_space_group_IT_number       1

loop_
  _space_group_symop_operation_xyz
  'x, y, z'

loop_
  _atom_site_type_symbol
  _atom_site_label
  _atom_site_symmetry_multiplicity
  _atom_site_fract_x
  _atom_site_fract_y
  _atom_site_fract_z
  _atom_site_occupancy
  Ba  Ba1       1.0  0.00039  0.00049  0.00036  1.0000
  Ba  Ba2       1.0  0.00036  0.00050  0.50037  1.0000
  Ba  Ba3       1.0  0.25046  0.50053  0.00036  1.0000
  Ba  Ba4       1.0  0.25040  0.50054  0.50034  1.0000
  Ba  Ba5       1.0  0.50046  0.00049  0.00038  1.0000
  Ba  Ba6       1.0  0.50039  0.00055  0.50037  1.0000
  Ba  Ba7       1.0  0.75049  0.50046  0.00037  1.0000
  Ba  Ba8       1.0  0.75042  0.50049  0.50032  1.0000
  Ba  Ba9       1.0  0.25044  0.16711  0.33617  1.0000
  Ba  Ba10      1.0  0.25048  0.16722  0.83617  1.0000
  Ba  Ba11      1.0  0.50039  0.66723  0.33612  1.0000
  Ba  Ba12      1.0  0.50038  0.66718  0.83614  1.0000
  Ba  Ba13      1.0  0.75038  0.16723  0.33619  1.0000
  Ba  Ba14      1.0  0.75038  0.16707  0.83615  1.0000
  Ba  Ba15      1.0  0.00048  0.66717  0.33610  1.0000
  Ba  Ba16      1.0  0.00045  0.66715  0.83618  1.0000
  Ba  Ba17      1.0  0.25038  0.83388  0.16452  1.0000
  Ba  Ba18      1.0  0.25032  0.83385  0.66459  1.0000
  Ba  Ba19      1.0  0.50044  0.33379  0.16461  1.0000
  Ba  Ba20      1.0  0.50037  0.33392  0.66445  1.0000
  Ba  Ba21      1.0  0.75040  0.83381  0.16459  1.0000
  Ba  Ba22      1.0  0.75042  0.83385  0.66451  1.0000
  Ba  Ba23      1.0  0.00042  0.33384  0.16459  1.0000
  Ba  Ba24      1.0  0.00038  0.33378  0.66458  1.0000
  Ca  Ca1       1.0  0.00038  0.00051  0.25033  1.0000
  Ca  Ca2       1.0  0.00037  0.00049  0.75041  1.0000
  Ca  Ca3       1.0  0.25048  0.50044  0.25034  1.0000
  Ca  Ca4       1.0  0.25044  0.50044  0.75036  1.0000
  Ca  Ca5       1.0  0.50039  0.00047  0.25037  1.0000
  Ca  Ca6       1.0  0.50040  0.00053  0.75036  1.0000
  Ca  Ca7       1.0  0.75041  0.50053  0.25035  1.0000
  Ca  Ca8       1.0  0.75038  0.50052  0.75032  1.0000
  Nb  Nb1       1.0  0.25038  0.16718  0.08560  1.0000
  Nb  Nb2       1.0  0.25034  0.16713  0.58558  1.0000
  Nb  Nb3       1.0  0.50047  0.66717  0.08558  1.0000
  Nb  Nb4       1.0  0.50040  0.66721  0.58561  1.0000
  Nb  Nb5       1.0  0.75039  0.16722  0.08561  1.0000
  Nb  Nb6       1.0  0.75039  0.16718  0.58559  1.0000
  Nb  Nb7       1.0  0.00046  0.66712  0.08561  1.0000
  Nb  Nb8       1.0  0.00038  0.66716  0.58559  1.0000
  Nb  Nb9       1.0  0.25041  0.83380  0.41513  1.0000
  Nb  Nb10      1.0  0.25044  0.83384  0.91514  1.0000
  Nb  Nb11      1.0  0.50039  0.33384  0.41511  1.0000
  Nb  Nb12      1.0  0.50046  0.33386  0.91513  1.0000
  Nb  Nb13      1.0  0.75038  0.83385  0.41512  1.0000
  Nb  Nb14      1.0  0.75044  0.83381  0.91517  1.0000
  Nb  Nb15      1.0  0.00044  0.33384  0.41511  1.0000
  Nb  Nb16      1.0  0.00041  0.33380  0.91510  1.0000
  O   O1        1.0  0.25027  0.32398  0.15769  1.0000
  O   O2        1.0  0.25049  0.32408  0.65758  1.0000
  O   O3        1.0  0.50036  0.82396  0.15771  1.0000
  O   O4        1.0  0.50058  0.82411  0.65762  1.0000
  O   O5        1.0  0.75028  0.32419  0.15754  1.0000
  O   O6        1.0  0.75049  0.32404  0.65762  1.0000
  O   O7        1.0  0.00039  0.82404  0.15763  1.0000
  O   O8        1.0  0.00026  0.82409  0.65757  1.0000
  O   O9        1.0  0.25037  0.67680  0.34320  1.0000
  O   O10       1.0  0.25039  0.67681  0.84323  1.0000
  O   O11       1.0  0.50020  0.17696  0.34307  1.0000
  O   O12       1.0  0.50032  0.17692  0.84315  1.0000
  O   O13       1.0  0.75023  0.67698  0.34306  1.0000
  O   O14       1.0  0.75035  0.67688  0.84320  1.0000
  O   O15       1.0  0.00046  0.17690  0.34315  1.0000
  O   O16       1.0  0.00040  0.17680  0.84319  1.0000
  O   O17       1.0  0.13268  0.08859  0.15756  1.0000
  O   O18       1.0  0.13252  0.08880  0.65752  1.0000
  O   O19       1.0  0.38282  0.58852  0.15755  1.0000
  O   O20       1.0  0.38275  0.58885  0.65773  1.0000
  O   O21       1.0  0.63273  0.08870  0.15763  1.0000
  O   O22       1.0  0.63260  0.08887  0.65759  1.0000
  O   O23       1.0  0.88277  0.58862  0.15757  1.0000
  O   O24       1.0  0.88269  0.58869  0.65755  1.0000
  O   O25       1.0  0.36814  0.91215  0.34317  1.0000
  O   O26       1.0  0.36814  0.91219  0.84312  1.0000
  O   O27       1.0  0.61821  0.41214  0.34318  1.0000
  O   O28       1.0  0.61807  0.41221  0.84307  1.0000
  O   O29       1.0  0.86802  0.91225  0.34306  1.0000
  O   O30       1.0  0.86821  0.91217  0.84322  1.0000
  O   O31       1.0  0.11822  0.41223  0.34319  1.0000
  O   O32       1.0  0.11814  0.41207  0.84306  1.0000
  O   O33       1.0  0.36798  0.08860  0.15767  1.0000
  O   O34       1.0  0.36787  0.08855  0.65767  1.0000
  O   O35       1.0  0.61822  0.58884  0.15757  1.0000
  O   O36       1.0  0.61804  0.58854  0.65753  1.0000
  O   O37       1.0  0.86809  0.08892  0.15768  1.0000
  O   O38       1.0  0.86799  0.08861  0.65763  1.0000
  O   O39       1.0  0.11806  0.58866  0.15769  1.0000
  O   O40       1.0  0.11808  0.58877  0.65763  1.0000
  O   O41       1.0  0.13278  0.91219  0.34302  1.0000
  O   O42       1.0  0.13273  0.91212  0.84308  1.0000
  O   O43       1.0  0.38284  0.41240  0.34302  1.0000
  O   O44       1.0  0.38267  0.41231  0.84324  1.0000
  O   O45       1.0  0.63265  0.91248  0.34326  1.0000
  O   O46       1.0  0.63287  0.91244  0.84311  1.0000
  O   O47       1.0  0.88282  0.41228  0.34302  1.0000
  O   O48       1.0  0.88273  0.41217  0.84303  1.0000
  O   O49       1.0  0.12542  0.75053  0.00045  1.0000
  O   O50       1.0  0.12528  0.75054  0.50035  1.0000
  O   O51       1.0  0.37533  0.25054  0.00043  1.0000
  O   O52       1.0  0.37533  0.25051  0.50034  1.0000
  O   O53       1.0  0.62530  0.75064  0.00036  1.0000
  O   O54       1.0  0.62528  0.75046  0.50033  1.0000
  O   O55       1.0  0.87531  0.25060  0.00034  1.0000
  O   O56       1.0  0.87531  0.25047  0.50028  1.0000
  O   O57       1.0  0.12535  0.25047  0.00038  1.0000
  O   O58       1.0  0.12532  0.25062  0.50043  1.0000
  O   O59       1.0  0.37546  0.75050  0.00038  1.0000
  O   O60       1.0  0.37528  0.75056  0.50049  1.0000
  O   O61       1.0  0.62532  0.25039  0.00037  1.0000
  O   O62       1.0  0.62524  0.25047  0.50039  1.0000
  O   O63       1.0  0.87535  0.75048  0.00043  1.0000
  O   O64       1.0  0.87528  0.75047  0.50032  1.0000
  O   O65       1.0  0.25037  0.00042  0.00035  1.0000
  O   O66       1.0  0.25036  0.00051  0.50035  1.0000
  O   O67       1.0  0.50059  0.50046  0.00036  1.0000
  O   O68       1.0  0.50027  0.50049  0.50038  1.0000
  O   O69       1.0  0.75049  0.00049  0.00043  1.0000
  O   O70       1.0  0.75040  0.00051  0.50038  1.0000
  O   O71       1.0  0.00050  0.50057  0.00027  1.0000
  O   O72       1.0  0.00034  0.50053  0.50033  1.0000
