data_image0
_chemical_formula_structural       Cs64Li64O64
_chemical_formula_sum              "Cs64 Li64 O64"
_cell_length_a       14.3929
_cell_length_b       13.6581
_cell_length_c       19.0314
_cell_angle_alpha    90
_cell_angle_beta     90
_cell_angle_gamma    90

_space_group_name_H-M_alt    "P 1"
_space_group_IT_number       1

loop_
  _space_group_symop_operation_xyz
  'x, y, z'

loop_
  _atom_site_type_symbol
  _atom_site_label
  _atom_site_symmetry_multiplicity
  _atom_site_fract_x
  _atom_site_fract_y
  _atom_site_fract_z
  _atom_site_occupancy
  Cs  Cs1       1.0  0.18779  0.00273  0.41219  1.0000
  Cs  Cs2       1.0  0.18775  0.00289  0.91217  1.0000
  Cs  Cs3       1.0  0.18780  0.50260  0.41205  1.0000
  Cs  Cs4       1.0  0.18799  0.50285  0.91211  1.0000
  Cs  Cs5       1.0  0.43771  0.00292  0.41194  1.0000
  Cs  Cs6       1.0  0.43775  0.00284  0.91209  1.0000
  Cs  Cs7       1.0  0.43787  0.50278  0.41209  1.0000
  Cs  Cs8       1.0  0.43779  0.50270  0.91200  1.0000
  Cs  Cs9       1.0  0.68762  0.00301  0.41209  1.0000
  Cs  Cs10      1.0  0.68790  0.00275  0.91202  1.0000
  Cs  Cs11      1.0  0.68783  0.50286  0.41217  1.0000
  Cs  Cs12      1.0  0.68776  0.50288  0.91217  1.0000
  Cs  Cs13      1.0  0.93770  0.00262  0.41227  1.0000
  Cs  Cs14      1.0  0.93787  0.00290  0.91210  1.0000
  Cs  Cs15      1.0  0.93772  0.50275  0.41190  1.0000
  Cs  Cs16      1.0  0.93795  0.50268  0.91214  1.0000
  Cs  Cs17      1.0  0.06287  0.24799  0.16212  1.0000
  Cs  Cs18      1.0  0.06281  0.24800  0.66195  1.0000
  Cs  Cs19      1.0  0.06294  0.74812  0.16223  1.0000
  Cs  Cs20      1.0  0.06292  0.74801  0.66212  1.0000
  Cs  Cs21      1.0  0.31292  0.24780  0.16211  1.0000
  Cs  Cs22      1.0  0.31289  0.24793  0.66210  1.0000
  Cs  Cs23      1.0  0.31300  0.74788  0.16224  1.0000
  Cs  Cs24      1.0  0.31271  0.74812  0.66226  1.0000
  Cs  Cs25      1.0  0.56279  0.24800  0.16211  1.0000
  Cs  Cs26      1.0  0.56285  0.24794  0.66223  1.0000
  Cs  Cs27      1.0  0.56282  0.74804  0.16194  1.0000
  Cs  Cs28      1.0  0.56278  0.74799  0.66218  1.0000
  Cs  Cs29      1.0  0.81270  0.24809  0.16218  1.0000
  Cs  Cs30      1.0  0.81277  0.24786  0.66200  1.0000
  Cs  Cs31      1.0  0.81280  0.74798  0.16218  1.0000
  Cs  Cs32      1.0  0.81297  0.74779  0.66213  1.0000
  Cs  Cs33      1.0  0.18775  0.25276  0.33842  1.0000
  Cs  Cs34      1.0  0.18785  0.25273  0.83836  1.0000
  Cs  Cs35      1.0  0.18766  0.75283  0.33850  1.0000
  Cs  Cs36      1.0  0.18771  0.75279  0.83856  1.0000
  Cs  Cs37      1.0  0.43781  0.25293  0.33849  1.0000
  Cs  Cs38      1.0  0.43793  0.25276  0.83843  1.0000
  Cs  Cs39      1.0  0.43774  0.75279  0.33848  1.0000
  Cs  Cs40      1.0  0.43772  0.75287  0.83843  1.0000
  Cs  Cs41      1.0  0.68769  0.25291  0.33837  1.0000
  Cs  Cs42      1.0  0.68804  0.25286  0.83847  1.0000
  Cs  Cs43      1.0  0.68765  0.75293  0.33841  1.0000
  Cs  Cs44      1.0  0.68789  0.75267  0.83822  1.0000
  Cs  Cs45      1.0  0.93767  0.25261  0.33840  1.0000
  Cs  Cs46      1.0  0.93794  0.25295  0.83832  1.0000
  Cs  Cs47      1.0  0.93758  0.75271  0.33854  1.0000
  Cs  Cs48      1.0  0.93787  0.75262  0.83853  1.0000
  Cs  Cs49      1.0  0.06294  0.49806  0.08842  1.0000
  Cs  Cs50      1.0  0.06277  0.49792  0.58838  1.0000
  Cs  Cs51      1.0  0.06275  0.99792  0.08843  1.0000
  Cs  Cs52      1.0  0.06301  0.99790  0.58849  1.0000
  Cs  Cs53      1.0  0.31293  0.49789  0.08857  1.0000
  Cs  Cs54      1.0  0.31273  0.49814  0.58849  1.0000
  Cs  Cs55      1.0  0.31275  0.99787  0.08842  1.0000
  Cs  Cs56      1.0  0.31291  0.99786  0.58841  1.0000
  Cs  Cs57      1.0  0.56297  0.49814  0.08836  1.0000
  Cs  Cs58      1.0  0.56275  0.49802  0.58853  1.0000
  Cs  Cs59      1.0  0.56295  0.99795  0.08831  1.0000
  Cs  Cs60      1.0  0.56291  0.99799  0.58850  1.0000
  Cs  Cs61      1.0  0.81297  0.49820  0.08826  1.0000
  Cs  Cs62      1.0  0.81285  0.49785  0.58835  1.0000
  Cs  Cs63      1.0  0.81294  0.99800  0.08848  1.0000
  Cs  Cs64      1.0  0.81300  0.99788  0.58845  1.0000
  Li  Li1       1.0  0.06272  0.04874  0.24773  1.0000
  Li  Li2       1.0  0.06282  0.04870  0.74763  1.0000
  Li  Li3       1.0  0.06284  0.54884  0.24769  1.0000
  Li  Li4       1.0  0.06285  0.54878  0.74767  1.0000
  Li  Li5       1.0  0.31281  0.04873  0.24775  1.0000
  Li  Li6       1.0  0.31287  0.04868  0.74773  1.0000
  Li  Li7       1.0  0.31284  0.54866  0.24776  1.0000
  Li  Li8       1.0  0.31287  0.54879  0.74771  1.0000
  Li  Li9       1.0  0.56281  0.04868  0.24759  1.0000
  Li  Li10      1.0  0.56285  0.04873  0.74775  1.0000
  Li  Li11      1.0  0.56280  0.54878  0.24759  1.0000
  Li  Li12      1.0  0.56284  0.54865  0.74763  1.0000
  Li  Li13      1.0  0.81276  0.04866  0.24770  1.0000
  Li  Li14      1.0  0.81292  0.04873  0.74773  1.0000
  Li  Li15      1.0  0.81279  0.54877  0.24760  1.0000
  Li  Li16      1.0  0.81279  0.54853  0.74755  1.0000
  Li  Li17      1.0  0.18775  0.20195  0.49762  1.0000
  Li  Li18      1.0  0.18794  0.20220  0.99781  1.0000
  Li  Li19      1.0  0.18801  0.70192  0.49756  1.0000
  Li  Li20      1.0  0.18792  0.70212  0.99764  1.0000
  Li  Li21      1.0  0.43781  0.20204  0.49764  1.0000
  Li  Li22      1.0  0.43788  0.20210  0.99756  1.0000
  Li  Li23      1.0  0.43793  0.70210  0.49752  1.0000
  Li  Li24      1.0  0.43788  0.70195  0.99763  1.0000
  Li  Li25      1.0  0.68776  0.20220  0.49766  1.0000
  Li  Li26      1.0  0.68792  0.20209  0.99754  1.0000
  Li  Li27      1.0  0.68791  0.70212  0.49766  1.0000
  Li  Li28      1.0  0.68803  0.70207  0.99766  1.0000
  Li  Li29      1.0  0.93771  0.20200  0.49759  1.0000
  Li  Li30      1.0  0.93795  0.20205  0.99771  1.0000
  Li  Li31      1.0  0.93797  0.70195  0.49770  1.0000
  Li  Li32      1.0  0.93794  0.70198  0.99771  1.0000
  Li  Li33      1.0  0.06297  0.29875  0.00292  1.0000
  Li  Li34      1.0  0.06275  0.29861  0.50284  1.0000
  Li  Li35      1.0  0.06291  0.79870  0.00276  1.0000
  Li  Li36      1.0  0.06299  0.79850  0.50299  1.0000
  Li  Li37      1.0  0.31286  0.29890  0.00282  1.0000
  Li  Li38      1.0  0.31275  0.29870  0.50293  1.0000
  Li  Li39      1.0  0.31294  0.79870  0.00285  1.0000
  Li  Li40      1.0  0.31290  0.79862  0.50294  1.0000
  Li  Li41      1.0  0.56294  0.29870  0.00291  1.0000
  Li  Li42      1.0  0.56275  0.29879  0.50293  1.0000
  Li  Li43      1.0  0.56292  0.79861  0.00281  1.0000
  Li  Li44      1.0  0.56292  0.79878  0.50291  1.0000
  Li  Li45      1.0  0.81293  0.29873  0.00287  1.0000
  Li  Li46      1.0  0.81277  0.29883  0.50284  1.0000
  Li  Li47      1.0  0.81300  0.79867  0.00286  1.0000
  Li  Li48      1.0  0.81297  0.79864  0.50303  1.0000
  Li  Li49      1.0  0.18782  0.45205  0.25274  1.0000
  Li  Li50      1.0  0.18789  0.45211  0.75286  1.0000
  Li  Li51      1.0  0.18781  0.95204  0.25294  1.0000
  Li  Li52      1.0  0.18786  0.95206  0.75305  1.0000
  Li  Li53      1.0  0.43781  0.45202  0.25279  1.0000
  Li  Li54      1.0  0.43782  0.45207  0.75277  1.0000
  Li  Li55      1.0  0.43779  0.95202  0.25280  1.0000
  Li  Li56      1.0  0.43791  0.95196  0.75284  1.0000
  Li  Li57      1.0  0.68782  0.45222  0.25279  1.0000
  Li  Li58      1.0  0.68781  0.45192  0.75281  1.0000
  Li  Li59      1.0  0.68780  0.95198  0.25279  1.0000
  Li  Li60      1.0  0.68793  0.95207  0.75289  1.0000
  Li  Li61      1.0  0.93783  0.45212  0.25279  1.0000
  Li  Li62      1.0  0.93788  0.45206  0.75286  1.0000
  Li  Li63      1.0  0.93773  0.95196  0.25289  1.0000
  Li  Li64      1.0  0.93784  0.95196  0.75289  1.0000
  O   O1        1.0  0.18778  0.09096  0.23078  1.0000
  O   O2        1.0  0.18793  0.09092  0.73073  1.0000
  O   O3        1.0  0.18788  0.59111  0.23080  1.0000
  O   O4        1.0  0.18785  0.59109  0.73081  1.0000
  O   O5        1.0  0.43781  0.09099  0.23070  1.0000
  O   O6        1.0  0.43791  0.09090  0.73079  1.0000
  O   O7        1.0  0.43781  0.59096  0.23063  1.0000
  O   O8        1.0  0.43785  0.59100  0.73069  1.0000
  O   O9        1.0  0.68780  0.09088  0.23065  1.0000
  O   O10       1.0  0.68789  0.09103  0.73094  1.0000
  O   O11       1.0  0.68785  0.59100  0.23049  1.0000
  O   O12       1.0  0.68781  0.59086  0.73064  1.0000
  O   O13       1.0  0.93771  0.09088  0.23074  1.0000
  O   O14       1.0  0.93784  0.09085  0.73065  1.0000
  O   O15       1.0  0.93783  0.59107  0.23083  1.0000
  O   O16       1.0  0.93776  0.59101  0.73087  1.0000
  O   O17       1.0  0.06270  0.15963  0.48067  1.0000
  O   O18       1.0  0.06298  0.15980  0.98092  1.0000
  O   O19       1.0  0.06294  0.65966  0.48066  1.0000
  O   O20       1.0  0.06292  0.65972  0.98060  1.0000
  O   O21       1.0  0.31276  0.15970  0.48080  1.0000
  O   O22       1.0  0.31284  0.15993  0.98066  1.0000
  O   O23       1.0  0.31300  0.65974  0.48056  1.0000
  O   O24       1.0  0.31286  0.65985  0.98057  1.0000
  O   O25       1.0  0.56282  0.15995  0.48062  1.0000
  O   O26       1.0  0.56294  0.15990  0.98065  1.0000
  O   O27       1.0  0.56293  0.65990  0.48049  1.0000
  O   O28       1.0  0.56300  0.65973  0.98068  1.0000
  O   O29       1.0  0.81271  0.15989  0.48069  1.0000
  O   O30       1.0  0.81289  0.15984  0.98068  1.0000
  O   O31       1.0  0.81293  0.65978  0.48080  1.0000
  O   O32       1.0  0.81296  0.65974  0.98077  1.0000
  O   O33       1.0  0.18789  0.34108  0.01999  1.0000
  O   O34       1.0  0.18772  0.34088  0.51984  1.0000
  O   O35       1.0  0.18788  0.84103  0.01967  1.0000
  O   O36       1.0  0.18792  0.84074  0.52002  1.0000
  O   O37       1.0  0.43790  0.34110  0.01972  1.0000
  O   O38       1.0  0.43776  0.34094  0.51985  1.0000
  O   O39       1.0  0.43787  0.84084  0.01990  1.0000
  O   O40       1.0  0.43790  0.84103  0.51978  1.0000
  O   O41       1.0  0.68793  0.34097  0.01975  1.0000
  O   O42       1.0  0.68779  0.34109  0.51983  1.0000
  O   O43       1.0  0.68794  0.84094  0.01986  1.0000
  O   O44       1.0  0.68797  0.84104  0.51989  1.0000
  O   O45       1.0  0.93795  0.34109  0.01978  1.0000
  O   O46       1.0  0.93777  0.34098  0.51978  1.0000
  O   O47       1.0  0.93797  0.84094  0.01973  1.0000
  O   O48       1.0  0.93805  0.84081  0.52001  1.0000
  O   O49       1.0  0.06281  0.40978  0.26961  1.0000
  O   O50       1.0  0.06285  0.40976  0.76967  1.0000
  O   O51       1.0  0.06274  0.90972  0.26980  1.0000
  O   O52       1.0  0.06290  0.90989  0.76987  1.0000
  O   O53       1.0  0.31284  0.40973  0.26975  1.0000
  O   O54       1.0  0.31287  0.40987  0.76977  1.0000
  O   O55       1.0  0.31278  0.90981  0.26980  1.0000
  O   O56       1.0  0.31292  0.90985  0.76998  1.0000
  O   O57       1.0  0.56288  0.40987  0.26976  1.0000
  O   O58       1.0  0.56272  0.40976  0.76970  1.0000
  O   O59       1.0  0.56283  0.90970  0.26967  1.0000
  O   O60       1.0  0.56290  0.90972  0.76977  1.0000
  O   O61       1.0  0.81283  0.40991  0.26988  1.0000
  O   O62       1.0  0.81281  0.40960  0.76961  1.0000
  O   O63       1.0  0.81276  0.90971  0.26984  1.0000
  O   O64       1.0  0.81289  0.90984  0.76982  1.0000
