data_image0
_chemical_formula_structural       Ta16Bi16O72
_chemical_formula_sum              "Ta16 Bi16 O72"
_cell_length_a       10.3796
_cell_length_b       12.2041
_cell_length_c       11.168
_cell_angle_alpha    91.2417
_cell_angle_beta     89.9697
_cell_angle_gamma    77.1779

_space_group_name_H-M_alt    "P 1"
_space_group_IT_number       1

loop_
  _space_group_symop_operation_xyz
  'x, y, z'

loop_
  _atom_site_type_symbol
  _atom_site_label
  _atom_site_symmetry_multiplicity
  _atom_site_fract_x
  _atom_site_fract_y
  _atom_site_fract_z
  _atom_site_occupancy
  Ta  Ta1       1.0  0.40994  0.85378  0.02053  1.0000
  Ta  Ta2       1.0  0.41372  0.85520  0.52471  1.0000
  Ta  Ta3       1.0  0.91012  0.84407  0.01578  1.0000
  Ta  Ta4       1.0  0.91405  0.84897  0.52348  1.0000
  Ta  Ta5       1.0  0.08791  0.15244  0.27282  1.0000
  Ta  Ta6       1.0  0.07403  0.14677  0.77545  1.0000
  Ta  Ta7       1.0  0.58488  0.15147  0.26814  1.0000
  Ta  Ta8       1.0  0.58411  0.15380  0.77428  1.0000
  Ta  Ta9       1.0  0.15778  0.85229  0.27031  1.0000
  Ta  Ta10      1.0  0.16140  0.84729  0.77502  1.0000
  Ta  Ta11      1.0  0.66006  0.85018  0.26933  1.0000
  Ta  Ta12      1.0  0.66155  0.85053  0.77073  1.0000
  Ta  Ta13      1.0  0.33410  0.15114  0.02208  1.0000
  Ta  Ta14      1.0  0.33617  0.15199  0.52213  1.0000
  Ta  Ta15      1.0  0.83271  0.14928  0.02654  1.0000
  Ta  Ta16      1.0  0.83021  0.15413  0.51650  1.0000
  Bi  Bi1       1.0  0.03609  0.38417  0.46196  1.0000
  Bi  Bi2       1.0  0.01563  0.38808  0.96488  1.0000
  Bi  Bi3       1.0  0.51506  0.39276  0.46434  1.0000
  Bi  Bi4       1.0  0.52850  0.39004  0.96267  1.0000
  Bi  Bi5       1.0  0.22538  0.62613  0.44682  1.0000
  Bi  Bi6       1.0  0.22596  0.62387  0.95888  1.0000
  Bi  Bi7       1.0  0.72374  0.61420  0.45336  1.0000
  Bi  Bi8       1.0  0.72241  0.60939  0.96210  1.0000
  Bi  Bi9       1.0  0.28573  0.38033  0.20288  1.0000
  Bi  Bi10      1.0  0.27070  0.36978  0.72165  1.0000
  Bi  Bi11      1.0  0.79269  0.39050  0.22031  1.0000
  Bi  Bi12      1.0  0.78137  0.38706  0.70259  1.0000
  Bi  Bi13      1.0  0.47246  0.62206  0.19940  1.0000
  Bi  Bi14      1.0  0.47295  0.62337  0.70086  1.0000
  Bi  Bi15      1.0  0.97262  0.62218  0.20490  1.0000
  Bi  Bi16      1.0  0.97743  0.62323  0.71492  1.0000
  O   O1        1.0  0.36221  0.30848  0.03759  1.0000
  O   O2        1.0  0.33818  0.31727  0.54794  1.0000
  O   O3        1.0  0.87062  0.30716  0.03611  1.0000
  O   O4        1.0  0.85377  0.31589  0.53534  1.0000
  O   O5        1.0  0.27828  0.78877  0.43506  1.0000
  O   O6        1.0  0.27583  0.80169  0.92333  1.0000
  O   O7        1.0  0.78665  0.77280  0.41833  1.0000
  O   O8        1.0  0.78391  0.79271  0.90956  1.0000
  O   O9        1.0  0.30331  0.00341  0.04490  1.0000
  O   O10       1.0  0.30924  0.00159  0.54452  1.0000
  O   O11       1.0  0.81487  0.99791  0.04089  1.0000
  O   O12       1.0  0.81492  0.99944  0.53466  1.0000
  O   O13       1.0  0.18921  0.99882  0.29325  1.0000
  O   O14       1.0  0.18499  0.99965  0.78548  1.0000
  O   O15       1.0  0.68218  0.99950  0.29199  1.0000
  O   O16       1.0  0.68186  0.00285  0.78773  1.0000
  O   O17       1.0  0.17432  0.20228  0.43207  1.0000
  O   O18       1.0  0.15988  0.22026  0.93451  1.0000
  O   O19       1.0  0.67110  0.21181  0.42251  1.0000
  O   O20       1.0  0.67186  0.21080  0.92623  1.0000
  O   O21       1.0  0.11011  0.45616  0.11712  1.0000
  O   O22       1.0  0.11113  0.47233  0.64144  1.0000
  O   O23       1.0  0.61766  0.49289  0.11748  1.0000
  O   O24       1.0  0.59450  0.46792  0.63467  1.0000
  O   O25       1.0  0.47285  0.31836  0.27807  1.0000
  O   O26       1.0  0.46451  0.31798  0.78616  1.0000
  O   O27       1.0  0.00004  0.31387  0.28536  1.0000
  O   O28       1.0  0.96759  0.31575  0.78578  1.0000
  O   O29       1.0  0.48264  0.12039  0.13997  1.0000
  O   O30       1.0  0.48560  0.12946  0.64102  1.0000
  O   O31       1.0  0.98620  0.12369  0.14343  1.0000
  O   O32       1.0  0.97814  0.12721  0.64088  1.0000
  O   O33       1.0  0.05060  0.86796  0.13754  1.0000
  O   O34       1.0  0.04886  0.86635  0.63747  1.0000
  O   O35       1.0  0.54306  0.87382  0.14397  1.0000
  O   O36       1.0  0.53899  0.88047  0.64521  1.0000
  O   O37       1.0  0.32930  0.78622  0.18198  1.0000
  O   O38       1.0  0.33362  0.78277  0.67547  1.0000
  O   O39       1.0  0.81443  0.79217  0.16473  1.0000
  O   O40       1.0  0.81152  0.79797  0.65955  1.0000
  O   O41       1.0  0.15927  0.68256  0.27784  1.0000
  O   O42       1.0  0.15562  0.68243  0.78051  1.0000
  O   O43       1.0  0.63373  0.68199  0.27953  1.0000
  O   O44       1.0  0.62954  0.68470  0.77806  1.0000
  O   O45       1.0  0.01117  0.86910  0.38560  1.0000
  O   O46       1.0  0.01349  0.87379  0.88525  1.0000
  O   O47       1.0  0.51655  0.87288  0.39395  1.0000
  O   O48       1.0  0.51582  0.87670  0.89528  1.0000
  O   O49       1.0  0.41078  0.55924  0.36019  1.0000
  O   O50       1.0  0.40904  0.54466  0.84537  1.0000
  O   O51       1.0  0.88987  0.52349  0.35766  1.0000
  O   O52       1.0  0.91486  0.52718  0.86514  1.0000
  O   O53       1.0  0.22626  0.21509  0.18374  1.0000
  O   O54       1.0  0.21403  0.21339  0.69170  1.0000
  O   O55       1.0  0.71340  0.20543  0.17187  1.0000
  O   O56       1.0  0.71250  0.22452  0.67991  1.0000
  O   O57       1.0  0.19208  0.46341  0.36410  1.0000
  O   O58       1.0  0.18571  0.44813  0.88257  1.0000
  O   O59       1.0  0.66228  0.47401  0.38544  1.0000
  O   O60       1.0  0.69223  0.45029  0.86581  1.0000
  O   O61       1.0  0.44825  0.13225  0.39233  1.0000
  O   O62       1.0  0.44444  0.12746  0.88854  1.0000
  O   O63       1.0  0.94706  0.13132  0.38958  1.0000
  O   O64       1.0  0.94765  0.12046  0.89125  1.0000
  O   O65       1.0  0.01069  0.68444  0.02230  1.0000
  O   O66       1.0  0.03287  0.67548  0.52158  1.0000
  O   O67       1.0  0.49681  0.68738  0.02882  1.0000
  O   O68       1.0  0.53432  0.68557  0.53360  1.0000
  O   O69       1.0  0.35352  0.51694  0.12234  1.0000
  O   O70       1.0  0.34255  0.54581  0.58994  1.0000
  O   O71       1.0  0.86881  0.51053  0.09933  1.0000
  O   O72       1.0  0.83010  0.53581  0.60982  1.0000
