data_image0
_chemical_formula_structural       Ba24Ca8Ta16O72
_chemical_formula_sum              "Ba24 Ca8 Ta16 O72"
_cell_length_a       11.8498
_cell_length_b       10.2623
_cell_length_c       14.6333
_cell_angle_alpha    90.0006
_cell_angle_beta     90.0015
_cell_angle_gamma    89.9983

_space_group_name_H-M_alt    "P 1"
_space_group_IT_number       1

loop_
  _space_group_symop_operation_xyz
  'x, y, z'

loop_
  _atom_site_type_symbol
  _atom_site_label
  _atom_site_symmetry_multiplicity
  _atom_site_fract_x
  _atom_site_fract_y
  _atom_site_fract_z
  _atom_site_occupancy
  Ba  Ba1       1.0  0.25039  0.83393  0.16732  1.0000
  Ba  Ba2       1.0  0.25049  0.83390  0.66732  1.0000
  Ba  Ba3       1.0  0.50047  0.33388  0.16731  1.0000
  Ba  Ba4       1.0  0.50046  0.33385  0.66736  1.0000
  Ba  Ba5       1.0  0.75041  0.83384  0.16734  1.0000
  Ba  Ba6       1.0  0.75042  0.83382  0.66736  1.0000
  Ba  Ba7       1.0  0.00044  0.33390  0.16735  1.0000
  Ba  Ba8       1.0  0.00038  0.33390  0.66734  1.0000
  Ba  Ba9       1.0  0.25043  0.16727  0.33333  1.0000
  Ba  Ba10      1.0  0.25047  0.16725  0.83338  1.0000
  Ba  Ba11      1.0  0.50036  0.66727  0.33337  1.0000
  Ba  Ba12      1.0  0.50045  0.66716  0.83337  1.0000
  Ba  Ba13      1.0  0.75039  0.16715  0.33340  1.0000
  Ba  Ba14      1.0  0.75049  0.16720  0.83340  1.0000
  Ba  Ba15      1.0  0.00040  0.66721  0.33337  1.0000
  Ba  Ba16      1.0  0.00054  0.66722  0.83339  1.0000
  Ba  Ba17      1.0  0.00047  0.00049  0.00036  1.0000
  Ba  Ba18      1.0  0.00049  0.00052  0.50036  1.0000
  Ba  Ba19      1.0  0.25045  0.50052  0.00031  1.0000
  Ba  Ba20      1.0  0.25050  0.50051  0.50032  1.0000
  Ba  Ba21      1.0  0.50044  0.00058  0.00032  1.0000
  Ba  Ba22      1.0  0.50048  0.00052  0.50035  1.0000
  Ba  Ba23      1.0  0.75046  0.50043  0.00030  1.0000
  Ba  Ba24      1.0  0.75049  0.50046  0.50034  1.0000
  Ca  Ca1       1.0  0.00038  0.00057  0.25035  1.0000
  Ca  Ca2       1.0  0.00046  0.00055  0.75036  1.0000
  Ca  Ca3       1.0  0.25043  0.50055  0.25035  1.0000
  Ca  Ca4       1.0  0.25047  0.50061  0.75036  1.0000
  Ca  Ca5       1.0  0.50041  0.00048  0.25038  1.0000
  Ca  Ca6       1.0  0.50045  0.00053  0.75033  1.0000
  Ca  Ca7       1.0  0.75041  0.50051  0.25032  1.0000
  Ca  Ca8       1.0  0.75043  0.50046  0.75028  1.0000
  Ta  Ta1       1.0  0.25040  0.83389  0.41653  1.0000
  Ta  Ta2       1.0  0.25054  0.83389  0.91656  1.0000
  Ta  Ta3       1.0  0.50038  0.33385  0.41658  1.0000
  Ta  Ta4       1.0  0.50045  0.33384  0.91658  1.0000
  Ta  Ta5       1.0  0.75044  0.83380  0.41661  1.0000
  Ta  Ta6       1.0  0.75046  0.83378  0.91651  1.0000
  Ta  Ta7       1.0  0.00044  0.33385  0.41656  1.0000
  Ta  Ta8       1.0  0.00047  0.33387  0.91658  1.0000
  Ta  Ta9       1.0  0.25042  0.16722  0.08413  1.0000
  Ta  Ta10      1.0  0.25043  0.16719  0.58415  1.0000
  Ta  Ta11      1.0  0.50050  0.66722  0.08411  1.0000
  Ta  Ta12      1.0  0.50044  0.66715  0.58410  1.0000
  Ta  Ta13      1.0  0.75043  0.16711  0.08414  1.0000
  Ta  Ta14      1.0  0.75042  0.16721  0.58414  1.0000
  Ta  Ta15      1.0  0.00045  0.66718  0.08412  1.0000
  Ta  Ta16      1.0  0.00048  0.66720  0.58416  1.0000
  O   O1        1.0  0.25034  0.32321  0.15681  1.0000
  O   O2        1.0  0.25052  0.32309  0.65697  1.0000
  O   O3        1.0  0.50050  0.82318  0.15683  1.0000
  O   O4        1.0  0.50058  0.82317  0.65679  1.0000
  O   O5        1.0  0.75031  0.32314  0.15681  1.0000
  O   O6        1.0  0.75053  0.32328  0.65672  1.0000
  O   O7        1.0  0.00032  0.82318  0.15681  1.0000
  O   O8        1.0  0.00045  0.82311  0.65692  1.0000
  O   O9        1.0  0.25036  0.67786  0.34385  1.0000
  O   O10       1.0  0.25046  0.67794  0.84380  1.0000
  O   O11       1.0  0.50035  0.17782  0.34390  1.0000
  O   O12       1.0  0.50021  0.17790  0.84383  1.0000
  O   O13       1.0  0.75050  0.67799  0.34376  1.0000
  O   O14       1.0  0.75047  0.67785  0.84376  1.0000
  O   O15       1.0  0.00048  0.17795  0.34378  1.0000
  O   O16       1.0  0.00052  0.17785  0.84390  1.0000
  O   O17       1.0  0.25060  0.00058  0.00028  1.0000
  O   O18       1.0  0.25042  0.00062  0.50025  1.0000
  O   O19       1.0  0.50060  0.50059  0.00033  1.0000
  O   O20       1.0  0.50042  0.50051  0.50032  1.0000
  O   O21       1.0  0.75050  0.00051  0.00037  1.0000
  O   O22       1.0  0.75038  0.00052  0.50046  1.0000
  O   O23       1.0  0.00039  0.50050  0.00035  1.0000
  O   O24       1.0  0.00055  0.50066  0.50025  1.0000
  O   O25       1.0  0.12548  0.25056  0.00040  1.0000
  O   O26       1.0  0.12554  0.25070  0.50036  1.0000
  O   O27       1.0  0.37543  0.75056  0.00033  1.0000
  O   O28       1.0  0.37547  0.75054  0.50029  1.0000
  O   O29       1.0  0.62541  0.25048  0.00033  1.0000
  O   O30       1.0  0.62549  0.25050  0.50029  1.0000
  O   O31       1.0  0.87538  0.75044  0.00027  1.0000
  O   O32       1.0  0.87538  0.75051  0.50038  1.0000
  O   O33       1.0  0.36737  0.08926  0.15693  1.0000
  O   O34       1.0  0.36733  0.08890  0.65680  1.0000
  O   O35       1.0  0.61749  0.58924  0.15681  1.0000
  O   O36       1.0  0.61736  0.58905  0.65682  1.0000
  O   O37       1.0  0.86740  0.08924  0.15688  1.0000
  O   O38       1.0  0.86740  0.08929  0.65688  1.0000
  O   O39       1.0  0.11741  0.58918  0.15681  1.0000
  O   O40       1.0  0.11744  0.58919  0.65686  1.0000
  O   O41       1.0  0.13343  0.91181  0.34375  1.0000
  O   O42       1.0  0.13352  0.91190  0.84386  1.0000
  O   O43       1.0  0.38326  0.41174  0.34393  1.0000
  O   O44       1.0  0.38356  0.41195  0.84383  1.0000
  O   O45       1.0  0.63347  0.91194  0.34393  1.0000
  O   O46       1.0  0.63351  0.91190  0.84382  1.0000
  O   O47       1.0  0.88339  0.41183  0.34387  1.0000
  O   O48       1.0  0.88355  0.41173  0.84371  1.0000
  O   O49       1.0  0.13343  0.08908  0.15677  1.0000
  O   O50       1.0  0.13334  0.08912  0.65669  1.0000
  O   O51       1.0  0.38348  0.58929  0.15681  1.0000
  O   O52       1.0  0.38342  0.58926  0.65683  1.0000
  O   O53       1.0  0.63342  0.08908  0.15679  1.0000
  O   O54       1.0  0.63337  0.08957  0.65696  1.0000
  O   O55       1.0  0.88342  0.58922  0.15679  1.0000
  O   O56       1.0  0.88345  0.58920  0.65678  1.0000
  O   O57       1.0  0.36741  0.91172  0.34379  1.0000
  O   O58       1.0  0.36742  0.91179  0.84372  1.0000
  O   O59       1.0  0.61720  0.41191  0.34373  1.0000
  O   O60       1.0  0.61751  0.41170  0.84386  1.0000
  O   O61       1.0  0.86743  0.91201  0.34401  1.0000
  O   O62       1.0  0.86740  0.91181  0.84378  1.0000
  O   O63       1.0  0.11735  0.41184  0.34376  1.0000
  O   O64       1.0  0.11753  0.41192  0.84396  1.0000
  O   O65       1.0  0.12546  0.75053  0.00037  1.0000
  O   O66       1.0  0.12548  0.75056  0.50037  1.0000
  O   O67       1.0  0.37545  0.25064  0.00039  1.0000
  O   O68       1.0  0.37557  0.25057  0.50049  1.0000
  O   O69       1.0  0.62548  0.75055  0.00029  1.0000
  O   O70       1.0  0.62541  0.75036  0.50026  1.0000
  O   O71       1.0  0.87546  0.25055  0.00035  1.0000
  O   O72       1.0  0.87550  0.25049  0.50031  1.0000
