data_image0
_chemical_formula_structural       Mg24Ti48O96
_chemical_formula_sum              "Mg24 Ti48 O96"
_cell_length_a       11.8293
_cell_length_b       10.2477
_cell_length_c       14.9099
_cell_angle_alpha    90.009
_cell_angle_beta     90.0032
_cell_angle_gamma    90

_space_group_name_H-M_alt    "P 1"
_space_group_IT_number       1

loop_
  _space_group_symop_operation_xyz
  'x, y, z'

loop_
  _atom_site_type_symbol
  _atom_site_label
  _atom_site_symmetry_multiplicity
  _atom_site_fract_x
  _atom_site_fract_y
  _atom_site_fract_z
  _atom_site_occupancy
  Mg  Mg1       1.0  0.25042  0.83355  0.95498  1.0000
  Mg  Mg2       1.0  0.50046  0.33357  0.95497  1.0000
  Mg  Mg3       1.0  0.75040  0.83351  0.95500  1.0000
  Mg  Mg4       1.0  0.00047  0.33352  0.95502  1.0000
  Mg  Mg5       1.0  0.25047  0.16701  0.62515  1.0000
  Mg  Mg6       1.0  0.50040  0.66701  0.62521  1.0000
  Mg  Mg7       1.0  0.75041  0.16694  0.62518  1.0000
  Mg  Mg8       1.0  0.00043  0.66704  0.62520  1.0000
  Mg  Mg9       1.0  0.00039  0.00037  0.66332  1.0000
  Mg  Mg10      1.0  0.25037  0.50029  0.66332  1.0000
  Mg  Mg11      1.0  0.50039  0.00027  0.66332  1.0000
  Mg  Mg12      1.0  0.75046  0.50033  0.66337  1.0000
  Mg  Mg13      1.0  0.00038  0.00095  0.30044  1.0000
  Mg  Mg14      1.0  0.25039  0.50092  0.30035  1.0000
  Mg  Mg15      1.0  0.50038  0.00094  0.30034  1.0000
  Mg  Mg16      1.0  0.75044  0.50096  0.30040  1.0000
  Mg  Mg17      1.0  0.25050  0.16728  0.99965  1.0000
  Mg  Mg18      1.0  0.50044  0.66730  0.99960  1.0000
  Mg  Mg19      1.0  0.75046  0.16726  0.99967  1.0000
  Mg  Mg20      1.0  0.00041  0.66728  0.99967  1.0000
  Mg  Mg21      1.0  0.25046  0.16692  0.37045  1.0000
  Mg  Mg22      1.0  0.50038  0.66687  0.37043  1.0000
  Mg  Mg23      1.0  0.75040  0.16696  0.37046  1.0000
  Mg  Mg24      1.0  0.00042  0.66698  0.37045  1.0000
  Ti  Ti1       1.0  0.12261  0.08162  0.83496  1.0000
  Ti  Ti2       1.0  0.37248  0.58162  0.83492  1.0000
  Ti  Ti3       1.0  0.62247  0.08162  0.83494  1.0000
  Ti  Ti4       1.0  0.87255  0.58164  0.83498  1.0000
  Ti  Ti5       1.0  0.37845  0.08160  0.83493  1.0000
  Ti  Ti6       1.0  0.62837  0.58160  0.83495  1.0000
  Ti  Ti7       1.0  0.87829  0.08158  0.83498  1.0000
  Ti  Ti8       1.0  0.12835  0.58165  0.83496  1.0000
  Ti  Ti9       1.0  0.37447  0.91624  0.49930  1.0000
  Ti  Ti10      1.0  0.62462  0.41638  0.49939  1.0000
  Ti  Ti11      1.0  0.87432  0.91627  0.49935  1.0000
  Ti  Ti12      1.0  0.12424  0.41622  0.49933  1.0000
  Ti  Ti13      1.0  0.25046  0.33781  0.83492  1.0000
  Ti  Ti14      1.0  0.50034  0.83792  0.83492  1.0000
  Ti  Ti15      1.0  0.75042  0.33783  0.83495  1.0000
  Ti  Ti16      1.0  0.00039  0.83790  0.83493  1.0000
  Ti  Ti17      1.0  0.12636  0.91638  0.49935  1.0000
  Ti  Ti18      1.0  0.37630  0.41632  0.49936  1.0000
  Ti  Ti19      1.0  0.62645  0.91624  0.49933  1.0000
  Ti  Ti20      1.0  0.87659  0.41626  0.49942  1.0000
  Ti  Ti21      1.0  0.25036  0.83359  0.32355  1.0000
  Ti  Ti22      1.0  0.50043  0.33363  0.32355  1.0000
  Ti  Ti23      1.0  0.75035  0.83357  0.32357  1.0000
  Ti  Ti24      1.0  0.00038  0.33358  0.32360  1.0000
  Ti  Ti25      1.0  0.25032  0.83346  0.70874  1.0000
  Ti  Ti26      1.0  0.50040  0.33348  0.70874  1.0000
  Ti  Ti27      1.0  0.75036  0.83345  0.70885  1.0000
  Ti  Ti28      1.0  0.00039  0.33343  0.70891  1.0000
  Ti  Ti29      1.0  0.13417  0.75715  0.17138  1.0000
  Ti  Ti30      1.0  0.38422  0.25718  0.17139  1.0000
  Ti  Ti31      1.0  0.63415  0.75713  0.17139  1.0000
  Ti  Ti32      1.0  0.88420  0.25713  0.17143  1.0000
  Ti  Ti33      1.0  0.25038  0.66859  0.49975  1.0000
  Ti  Ti34      1.0  0.50046  0.16872  0.49973  1.0000
  Ti  Ti35      1.0  0.75041  0.66874  0.49980  1.0000
  Ti  Ti36      1.0  0.00045  0.16902  0.49978  1.0000
  Ti  Ti37      1.0  0.36664  0.75712  0.17137  1.0000
  Ti  Ti38      1.0  0.61672  0.25716  0.17141  1.0000
  Ti  Ti39      1.0  0.86669  0.75716  0.17141  1.0000
  Ti  Ti40      1.0  0.11673  0.25714  0.17142  1.0000
  Ti  Ti41      1.0  0.25037  0.98800  0.17057  1.0000
  Ti  Ti42      1.0  0.50039  0.48802  0.17054  1.0000
  Ti  Ti43      1.0  0.75042  0.98800  0.17058  1.0000
  Ti  Ti44      1.0  0.00040  0.48801  0.17058  1.0000
  Ti  Ti45      1.0  0.00042  0.00079  0.05138  1.0000
  Ti  Ti46      1.0  0.25041  0.50079  0.05134  1.0000
  Ti  Ti47      1.0  0.50044  0.00078  0.05136  1.0000
  Ti  Ti48      1.0  0.75040  0.50076  0.05137  1.0000
  O   O1        1.0  0.36691  0.24477  0.91032  1.0000
  O   O2        1.0  0.61685  0.74478  0.91027  1.0000
  O   O3        1.0  0.86690  0.24478  0.91033  1.0000
  O   O4        1.0  0.11685  0.74479  0.91031  1.0000
  O   O5        1.0  0.25044  0.16702  0.75823  1.0000
  O   O6        1.0  0.50043  0.66702  0.75826  1.0000
  O   O7        1.0  0.75044  0.16700  0.75826  1.0000
  O   O8        1.0  0.00041  0.66706  0.75827  1.0000
  O   O9        1.0  0.13403  0.24478  0.91033  1.0000
  O   O10       1.0  0.38395  0.74478  0.91028  1.0000
  O   O11       1.0  0.63402  0.24477  0.91032  1.0000
  O   O12       1.0  0.88399  0.74479  0.91034  1.0000
  O   O13       1.0  0.25046  0.01161  0.91028  1.0000
  O   O14       1.0  0.50042  0.51162  0.91025  1.0000
  O   O15       1.0  0.75045  0.01158  0.91030  1.0000
  O   O16       1.0  0.00044  0.51158  0.91031  1.0000
  O   O17       1.0  0.11719  0.07828  0.57720  1.0000
  O   O18       1.0  0.36715  0.57824  0.57721  1.0000
  O   O19       1.0  0.61711  0.07825  0.57719  1.0000
  O   O20       1.0  0.86715  0.57832  0.57725  1.0000
  O   O21       1.0  0.25038  0.66019  0.75096  1.0000
  O   O22       1.0  0.50043  0.16021  0.75093  1.0000
  O   O23       1.0  0.75043  0.66016  0.75102  1.0000
  O   O24       1.0  0.00041  0.16011  0.75107  1.0000
  O   O25       1.0  0.00038  0.00073  0.42710  1.0000
  O   O26       1.0  0.25043  0.50063  0.42699  1.0000
  O   O27       1.0  0.50037  0.00069  0.42700  1.0000
  O   O28       1.0  0.75047  0.50068  0.42703  1.0000
  O   O29       1.0  0.12047  0.92012  0.75087  1.0000
  O   O30       1.0  0.37053  0.42012  0.75087  1.0000
  O   O31       1.0  0.62047  0.92009  0.75090  1.0000
  O   O32       1.0  0.87051  0.42012  0.75096  1.0000
  O   O33       1.0  0.00044  0.00121  0.92505  1.0000
  O   O34       1.0  0.25042  0.50111  0.92502  1.0000
  O   O35       1.0  0.50048  0.00113  0.92505  1.0000
  O   O36       1.0  0.75044  0.50115  0.92505  1.0000
  O   O37       1.0  0.38372  0.07825  0.57713  1.0000
  O   O38       1.0  0.63368  0.57827  0.57727  1.0000
  O   O39       1.0  0.88370  0.07827  0.57718  1.0000
  O   O40       1.0  0.13369  0.57831  0.57720  1.0000
  O   O41       1.0  0.25048  0.34467  0.57717  1.0000
  O   O42       1.0  0.50039  0.84464  0.57718  1.0000
  O   O43       1.0  0.75041  0.34464  0.57722  1.0000
  O   O44       1.0  0.00044  0.84469  0.57717  1.0000
  O   O45       1.0  0.38023  0.92009  0.75083  1.0000
  O   O46       1.0  0.63030  0.42008  0.75089  1.0000
  O   O47       1.0  0.88030  0.92009  0.75088  1.0000
  O   O48       1.0  0.13033  0.42008  0.75093  1.0000
  O   O49       1.0  0.37324  0.91706  0.25065  1.0000
  O   O50       1.0  0.62327  0.41718  0.25065  1.0000
  O   O51       1.0  0.87323  0.91709  0.25072  1.0000
  O   O52       1.0  0.12322  0.41710  0.25069  1.0000
  O   O53       1.0  0.25039  0.98792  0.41825  1.0000
  O   O54       1.0  0.50045  0.48791  0.41835  1.0000
  O   O55       1.0  0.75038  0.98798  0.41823  1.0000
  O   O56       1.0  0.00043  0.48804  0.41823  1.0000
  O   O57       1.0  0.36586  0.75657  0.41789  1.0000
  O   O58       1.0  0.61587  0.25664  0.41790  1.0000
  O   O59       1.0  0.86587  0.75662  0.41789  1.0000
  O   O60       1.0  0.11591  0.25650  0.41785  1.0000
  O   O61       1.0  0.25039  0.83262  0.08505  1.0000
  O   O62       1.0  0.50048  0.33256  0.08505  1.0000
  O   O63       1.0  0.75039  0.83253  0.08507  1.0000
  O   O64       1.0  0.00046  0.33253  0.08509  1.0000
  O   O65       1.0  0.25042  0.83434  0.58178  1.0000
  O   O66       1.0  0.50043  0.33431  0.58178  1.0000
  O   O67       1.0  0.75042  0.83444  0.58194  1.0000
  O   O68       1.0  0.00045  0.33437  0.58208  1.0000
  O   O69       1.0  0.12752  0.91711  0.25066  1.0000
  O   O70       1.0  0.37759  0.41714  0.25068  1.0000
  O   O71       1.0  0.62754  0.91713  0.25063  1.0000
  O   O72       1.0  0.87758  0.41714  0.25067  1.0000
  O   O73       1.0  0.25041  0.66904  0.24927  1.0000
  O   O74       1.0  0.50046  0.16906  0.24925  1.0000
  O   O75       1.0  0.75043  0.66904  0.24923  1.0000
  O   O76       1.0  0.00048  0.16903  0.24926  1.0000
  O   O77       1.0  0.13497  0.75663  0.41790  1.0000
  O   O78       1.0  0.38503  0.25659  0.41787  1.0000
  O   O79       1.0  0.63492  0.75653  0.41787  1.0000
  O   O80       1.0  0.88492  0.25660  0.41787  1.0000
  O   O81       1.0  0.25045  0.32572  0.08789  1.0000
  O   O82       1.0  0.50041  0.82570  0.08785  1.0000
  O   O83       1.0  0.75046  0.32568  0.08789  1.0000
  O   O84       1.0  0.00040  0.82569  0.08788  1.0000
  O   O85       1.0  0.36905  0.08798  0.08782  1.0000
  O   O86       1.0  0.61900  0.58799  0.08778  1.0000
  O   O87       1.0  0.86903  0.08798  0.08785  1.0000
  O   O88       1.0  0.11901  0.58798  0.08781  1.0000
  O   O89       1.0  0.25047  0.16748  0.23831  1.0000
  O   O90       1.0  0.50041  0.66750  0.23829  1.0000
  O   O91       1.0  0.75045  0.16749  0.23832  1.0000
  O   O92       1.0  0.00044  0.66747  0.23830  1.0000
  O   O93       1.0  0.13185  0.08801  0.08781  1.0000
  O   O94       1.0  0.38182  0.58799  0.08776  1.0000
  O   O95       1.0  0.63185  0.08797  0.08782  1.0000
  O   O96       1.0  0.88182  0.58795  0.08783  1.0000
