data_image0
_chemical_formula_structural       Sr24Ta24O84
_chemical_formula_sum              "Sr24 Ta24 O84"
_cell_length_a       11.8838
_cell_length_b       13.8216
_cell_length_c       11.4175
_cell_angle_alpha    90
_cell_angle_beta     90
_cell_angle_gamma    81.7611

_space_group_name_H-M_alt    "P 1"
_space_group_IT_number       1

loop_
  _space_group_symop_operation_xyz
  'x, y, z'

loop_
  _atom_site_type_symbol
  _atom_site_label
  _atom_site_symmetry_multiplicity
  _atom_site_fract_x
  _atom_site_fract_y
  _atom_site_fract_z
  _atom_site_occupancy
  Sr  Sr1       1.0  0.09572  0.42808  0.37546  1.0000
  Sr  Sr2       1.0  0.09571  0.42789  0.87555  1.0000
  Sr  Sr3       1.0  0.42909  0.42803  0.37533  1.0000
  Sr  Sr4       1.0  0.42910  0.42790  0.87543  1.0000
  Sr  Sr5       1.0  0.76245  0.42808  0.37547  1.0000
  Sr  Sr6       1.0  0.76233  0.42801  0.87530  1.0000
  Sr  Sr7       1.0  0.23824  0.57275  0.12534  1.0000
  Sr  Sr8       1.0  0.23827  0.57280  0.62552  1.0000
  Sr  Sr9       1.0  0.57165  0.57284  0.12533  1.0000
  Sr  Sr10      1.0  0.57171  0.57288  0.62530  1.0000
  Sr  Sr11      1.0  0.90492  0.57270  0.12548  1.0000
  Sr  Sr12      1.0  0.90509  0.57271  0.62549  1.0000
  Sr  Sr13      1.0  0.14930  0.10694  0.12569  1.0000
  Sr  Sr14      1.0  0.14930  0.10692  0.62554  1.0000
  Sr  Sr15      1.0  0.48257  0.10703  0.12546  1.0000
  Sr  Sr16      1.0  0.48257  0.10700  0.62559  1.0000
  Sr  Sr17      1.0  0.81599  0.10692  0.12552  1.0000
  Sr  Sr18      1.0  0.81596  0.10710  0.62544  1.0000
  Sr  Sr19      1.0  0.18492  0.89377  0.37557  1.0000
  Sr  Sr20      1.0  0.18477  0.89369  0.87565  1.0000
  Sr  Sr21      1.0  0.51808  0.89363  0.37543  1.0000
  Sr  Sr22      1.0  0.51827  0.89374  0.87542  1.0000
  Sr  Sr23      1.0  0.85160  0.89378  0.37557  1.0000
  Sr  Sr24      1.0  0.85156  0.89375  0.87540  1.0000
  Ta  Ta1       1.0  0.28046  0.31924  0.12556  1.0000
  Ta  Ta2       1.0  0.28052  0.31928  0.62544  1.0000
  Ta  Ta3       1.0  0.61385  0.31921  0.12542  1.0000
  Ta  Ta4       1.0  0.61386  0.31930  0.62531  1.0000
  Ta  Ta5       1.0  0.94714  0.31921  0.12546  1.0000
  Ta  Ta6       1.0  0.94729  0.31921  0.62547  1.0000
  Ta  Ta7       1.0  0.05363  0.68147  0.37539  1.0000
  Ta  Ta8       1.0  0.05353  0.68143  0.87551  1.0000
  Ta  Ta9       1.0  0.38690  0.68149  0.37540  1.0000
  Ta  Ta10      1.0  0.38696  0.68139  0.87544  1.0000
  Ta  Ta11      1.0  0.72027  0.68154  0.37548  1.0000
  Ta  Ta12      1.0  0.72024  0.68148  0.87544  1.0000
  Ta  Ta13      1.0  0.31538  0.11017  0.37548  1.0000
  Ta  Ta14      1.0  0.31540  0.11018  0.87545  1.0000
  Ta  Ta15      1.0  0.64872  0.11015  0.37542  1.0000
  Ta  Ta16      1.0  0.64877  0.11017  0.87544  1.0000
  Ta  Ta17      1.0  0.98206  0.11015  0.37549  1.0000
  Ta  Ta18      1.0  0.98210  0.11008  0.87548  1.0000
  Ta  Ta19      1.0  0.01867  0.89052  0.12555  1.0000
  Ta  Ta20      1.0  0.01873  0.89049  0.62553  1.0000
  Ta  Ta21      1.0  0.35202  0.89054  0.12542  1.0000
  Ta  Ta22      1.0  0.35202  0.89049  0.62550  1.0000
  Ta  Ta23      1.0  0.68531  0.89056  0.12544  1.0000
  Ta  Ta24      1.0  0.68535  0.89060  0.62541  1.0000
  O   O1        1.0  0.00032  0.00022  0.00041  1.0000
  O   O2        1.0  0.00040  0.00039  0.50056  1.0000
  O   O3        1.0  0.33367  0.00039  0.00038  1.0000
  O   O4        1.0  0.33368  0.00046  0.50053  1.0000
  O   O5        1.0  0.66696  0.00025  0.00036  1.0000
  O   O6        1.0  0.66701  0.00036  0.50040  1.0000
  O   O7        1.0  0.00039  0.00024  0.25054  1.0000
  O   O8        1.0  0.00041  0.00019  0.75061  1.0000
  O   O9        1.0  0.33355  0.00030  0.25048  1.0000
  O   O10       1.0  0.33377  0.00029  0.75037  1.0000
  O   O11       1.0  0.66712  0.00037  0.25043  1.0000
  O   O12       1.0  0.66686  0.00034  0.75043  1.0000
  O   O13       1.0  0.18268  0.90645  0.12529  1.0000
  O   O14       1.0  0.18267  0.90637  0.62549  1.0000
  O   O15       1.0  0.51598  0.90654  0.12558  1.0000
  O   O16       1.0  0.51603  0.90633  0.62536  1.0000
  O   O17       1.0  0.84933  0.90633  0.12555  1.0000
  O   O18       1.0  0.84938  0.90647  0.62547  1.0000
  O   O19       1.0  0.15130  0.09430  0.37531  1.0000
  O   O20       1.0  0.15139  0.09421  0.87523  1.0000
  O   O21       1.0  0.48468  0.09443  0.37524  1.0000
  O   O22       1.0  0.48473  0.09436  0.87541  1.0000
  O   O23       1.0  0.81807  0.09426  0.37546  1.0000
  O   O24       1.0  0.81807  0.09418  0.87557  1.0000
  O   O25       1.0  0.30044  0.19860  0.00456  1.0000
  O   O26       1.0  0.30047  0.19868  0.50449  1.0000
  O   O27       1.0  0.63394  0.19845  0.00475  1.0000
  O   O28       1.0  0.63395  0.19860  0.50459  1.0000
  O   O29       1.0  0.96753  0.19854  0.00457  1.0000
  O   O30       1.0  0.96739  0.19871  0.50450  1.0000
  O   O31       1.0  0.03353  0.80210  0.49631  1.0000
  O   O32       1.0  0.03351  0.80198  0.99641  1.0000
  O   O33       1.0  0.36666  0.80223  0.49610  1.0000
  O   O34       1.0  0.36683  0.80208  0.99629  1.0000
  O   O35       1.0  0.70014  0.80218  0.49626  1.0000
  O   O36       1.0  0.69999  0.80206  0.99635  1.0000
  O   O37       1.0  0.03353  0.80205  0.25462  1.0000
  O   O38       1.0  0.03333  0.80201  0.75462  1.0000
  O   O39       1.0  0.36675  0.80203  0.25446  1.0000
  O   O40       1.0  0.36682  0.80189  0.75442  1.0000
  O   O41       1.0  0.69991  0.80204  0.25455  1.0000
  O   O42       1.0  0.70009  0.80207  0.75454  1.0000
  O   O43       1.0  0.30046  0.19855  0.24625  1.0000
  O   O44       1.0  0.30078  0.19860  0.74629  1.0000
  O   O45       1.0  0.63414  0.19861  0.24637  1.0000
  O   O46       1.0  0.63417  0.19870  0.74640  1.0000
  O   O47       1.0  0.96712  0.19854  0.24624  1.0000
  O   O48       1.0  0.96725  0.19847  0.74620  1.0000
  O   O49       1.0  0.26492  0.41278  0.24466  1.0000
  O   O50       1.0  0.26495  0.41277  0.74463  1.0000
  O   O51       1.0  0.59825  0.41278  0.24450  1.0000
  O   O52       1.0  0.59819  0.41287  0.74438  1.0000
  O   O53       1.0  0.93157  0.41271  0.24463  1.0000
  O   O54       1.0  0.93167  0.41262  0.74477  1.0000
  O   O55       1.0  0.06912  0.58799  0.25623  1.0000
  O   O56       1.0  0.06913  0.58790  0.75630  1.0000
  O   O57       1.0  0.40249  0.58799  0.25623  1.0000
  O   O58       1.0  0.40253  0.58785  0.75634  1.0000
  O   O59       1.0  0.73568  0.58800  0.25633  1.0000
  O   O60       1.0  0.73577  0.58803  0.75620  1.0000
  O   O61       1.0  0.06919  0.58797  0.49462  1.0000
  O   O62       1.0  0.06901  0.58790  0.99464  1.0000
  O   O63       1.0  0.40235  0.58806  0.49462  1.0000
  O   O64       1.0  0.40248  0.58792  0.99467  1.0000
  O   O65       1.0  0.73591  0.58804  0.49471  1.0000
  O   O66       1.0  0.73580  0.58793  0.99459  1.0000
  O   O67       1.0  0.26497  0.41267  0.00628  1.0000
  O   O68       1.0  0.26498  0.41277  0.50626  1.0000
  O   O69       1.0  0.59823  0.41260  0.00610  1.0000
  O   O70       1.0  0.59829  0.41271  0.50601  1.0000
  O   O71       1.0  0.93157  0.41267  0.00624  1.0000
  O   O72       1.0  0.93173  0.41272  0.50631  1.0000
  O   O73       1.0  0.11728  0.29862  0.12572  1.0000
  O   O74       1.0  0.11739  0.29850  0.62569  1.0000
  O   O75       1.0  0.45063  0.29851  0.12569  1.0000
  O   O76       1.0  0.45067  0.29848  0.62542  1.0000
  O   O77       1.0  0.78396  0.29857  0.12542  1.0000
  O   O78       1.0  0.78400  0.29866  0.62539  1.0000
  O   O79       1.0  0.21677  0.70216  0.37533  1.0000
  O   O80       1.0  0.21682  0.70202  0.87550  1.0000
  O   O81       1.0  0.55010  0.70213  0.37560  1.0000
  O   O82       1.0  0.55013  0.70211  0.87548  1.0000
  O   O83       1.0  0.88346  0.70221  0.37533  1.0000
  O   O84       1.0  0.88338  0.70221  0.87555  1.0000
