data_image0
_chemical_formula_structural       Sr12Y24O48
_chemical_formula_sum              "Sr12 Y24 O48"
_cell_length_a       10.2273
_cell_length_b       10.0826
_cell_length_c       11.922
_cell_angle_alpha    90
_cell_angle_beta     90
_cell_angle_gamma    90

_space_group_name_H-M_alt    "P 1"
_space_group_IT_number       1

loop_
  _space_group_symop_operation_xyz
  'x, y, z'

loop_
  _atom_site_type_symbol
  _atom_site_label
  _atom_site_symmetry_multiplicity
  _atom_site_fract_x
  _atom_site_fract_y
  _atom_site_fract_z
  _atom_site_occupancy
  Sr  Sr1       1.0  0.25043  0.25363  0.85061  1.0000
  Sr  Sr2       1.0  0.58371  0.25339  0.85048  1.0000
  Sr  Sr3       1.0  0.91705  0.25342  0.85075  1.0000
  Sr  Sr4       1.0  0.08386  0.74741  0.15000  1.0000
  Sr  Sr5       1.0  0.41718  0.74755  0.15013  1.0000
  Sr  Sr6       1.0  0.75047  0.74740  0.15012  1.0000
  Sr  Sr7       1.0  0.25046  0.75358  0.65015  1.0000
  Sr  Sr8       1.0  0.58382  0.75363  0.65021  1.0000
  Sr  Sr9       1.0  0.91713  0.75324  0.65014  1.0000
  Sr  Sr10      1.0  0.08388  0.24741  0.35073  1.0000
  Sr  Sr11      1.0  0.41729  0.24745  0.35067  1.0000
  Sr  Sr12      1.0  0.75066  0.24727  0.35072  1.0000
  Y   Y1        1.0  0.08384  0.57816  0.89008  1.0000
  Y   Y2        1.0  0.41728  0.57821  0.89016  1.0000
  Y   Y3        1.0  0.75057  0.57818  0.89014  1.0000
  Y   Y4        1.0  0.25060  0.42281  0.11068  1.0000
  Y   Y5        1.0  0.58383  0.42265  0.11077  1.0000
  Y   Y6        1.0  0.91723  0.42268  0.11069  1.0000
  Y   Y7        1.0  0.08382  0.07819  0.61091  1.0000
  Y   Y8        1.0  0.41723  0.07825  0.61063  1.0000
  Y   Y9        1.0  0.75052  0.07808  0.61089  1.0000
  Y   Y10       1.0  0.25044  0.92281  0.39012  1.0000
  Y   Y11       1.0  0.58388  0.92276  0.39009  1.0000
  Y   Y12       1.0  0.91714  0.92279  0.39012  1.0000
  Y   Y13       1.0  0.25057  0.92446  0.88818  1.0000
  Y   Y14       1.0  0.58385  0.92434  0.88823  1.0000
  Y   Y15       1.0  0.91724  0.92417  0.88807  1.0000
  Y   Y16       1.0  0.08377  0.07660  0.11268  1.0000
  Y   Y17       1.0  0.41718  0.07676  0.11271  1.0000
  Y   Y18       1.0  0.75054  0.07664  0.11269  1.0000
  Y   Y19       1.0  0.25046  0.42430  0.61272  1.0000
  Y   Y20       1.0  0.58382  0.42454  0.61278  1.0000
  Y   Y21       1.0  0.91710  0.42420  0.61269  1.0000
  Y   Y22       1.0  0.08386  0.57663  0.38805  1.0000
  Y   Y23       1.0  0.41716  0.57671  0.38814  1.0000
  Y   Y24       1.0  0.75054  0.57653  0.38804  1.0000
  O   O1        1.0  0.08385  0.57555  0.57747  1.0000
  O   O2        1.0  0.41712  0.57589  0.57767  1.0000
  O   O3        1.0  0.75057  0.57576  0.57745  1.0000
  O   O4        1.0  0.25062  0.42526  0.42332  1.0000
  O   O5        1.0  0.58381  0.42531  0.42333  1.0000
  O   O6        1.0  0.91711  0.42518  0.42326  1.0000
  O   O7        1.0  0.08380  0.07570  0.92330  1.0000
  O   O8        1.0  0.41706  0.07581  0.92345  1.0000
  O   O9        1.0  0.75044  0.07566  0.92325  1.0000
  O   O10       1.0  0.25047  0.92519  0.07753  1.0000
  O   O11       1.0  0.58374  0.92537  0.07753  1.0000
  O   O12       1.0  0.91709  0.92514  0.07745  1.0000
  O   O13       1.0  0.08397  0.48472  0.21667  1.0000
  O   O14       1.0  0.41721  0.48467  0.21664  1.0000
  O   O15       1.0  0.75054  0.48483  0.21648  1.0000
  O   O16       1.0  0.25058  0.51589  0.78429  1.0000
  O   O17       1.0  0.58400  0.51634  0.78423  1.0000
  O   O18       1.0  0.91708  0.51642  0.78402  1.0000
  O   O19       1.0  0.08377  0.98490  0.28424  1.0000
  O   O20       1.0  0.41716  0.98490  0.28422  1.0000
  O   O21       1.0  0.75057  0.98465  0.28418  1.0000
  O   O22       1.0  0.25066  0.01643  0.71671  1.0000
  O   O23       1.0  0.58373  0.01623  0.71673  1.0000
  O   O24       1.0  0.91722  0.01621  0.71682  1.0000
  O   O25       1.0  0.08389  0.87529  0.52064  1.0000
  O   O26       1.0  0.41711  0.87530  0.52054  1.0000
  O   O27       1.0  0.75058  0.87537  0.52055  1.0000
  O   O28       1.0  0.25043  0.12573  0.48035  1.0000
  O   O29       1.0  0.58397  0.12553  0.48036  1.0000
  O   O30       1.0  0.91728  0.12565  0.48052  1.0000
  O   O31       1.0  0.08380  0.37532  0.98028  1.0000
  O   O32       1.0  0.41731  0.37518  0.98038  1.0000
  O   O33       1.0  0.75056  0.37524  0.98031  1.0000
  O   O34       1.0  0.25061  0.62562  0.02044  1.0000
  O   O35       1.0  0.58381  0.62569  0.02060  1.0000
  O   O36       1.0  0.91727  0.62570  0.02049  1.0000
  O   O37       1.0  0.25048  0.71136  0.32589  1.0000
  O   O38       1.0  0.58387  0.71135  0.32578  1.0000
  O   O39       1.0  0.91726  0.71139  0.32577  1.0000
  O   O40       1.0  0.08372  0.28965  0.67516  1.0000
  O   O41       1.0  0.41726  0.28966  0.67494  1.0000
  O   O42       1.0  0.75034  0.28965  0.67517  1.0000
  O   O43       1.0  0.25041  0.21137  0.17495  1.0000
  O   O44       1.0  0.58393  0.21134  0.17520  1.0000
  O   O45       1.0  0.91720  0.21121  0.17505  1.0000
  O   O46       1.0  0.08394  0.78964  0.82577  1.0000
  O   O47       1.0  0.41722  0.78967  0.82591  1.0000
  O   O48       1.0  0.75048  0.78959  0.82582  1.0000
