data_image0
_chemical_formula_structural       Li44Sn22O88
_chemical_formula_sum              "Li44 Sn22 O88"
_cell_length_a       11.0818
_cell_length_b       13.8513
_cell_length_c       10.8846
_cell_angle_alpha    100.8
_cell_angle_beta     87.4112
_cell_angle_gamma    89.7438

_space_group_name_H-M_alt    "P 1"
_space_group_IT_number       1

loop_
  _space_group_symop_operation_xyz
  'x, y, z'

loop_
  _atom_site_type_symbol
  _atom_site_label
  _atom_site_symmetry_multiplicity
  _atom_site_fract_x
  _atom_site_fract_y
  _atom_site_fract_z
  _atom_site_occupancy
  Li  Li1       1.0  0.73309  0.41153  0.60937  1.0000
  Li  Li2       1.0  0.36940  0.77515  0.70034  1.0000
  Li  Li3       1.0  0.55129  0.09330  0.65486  1.0000
  Li  Li4       1.0  0.18763  0.45701  0.74570  1.0000
  Li  Li5       1.0  0.00585  0.13880  0.79120  1.0000
  Li  Li6       1.0  0.46031  0.68421  0.42758  1.0000
  Li  Li7       1.0  0.64217  0.00242  0.38209  1.0000
  Li  Li8       1.0  0.27856  0.36603  0.47304  1.0000
  Li  Li9       1.0  0.91486  0.72971  0.56394  1.0000
  Li  Li10      1.0  0.09668  0.04787  0.51848  1.0000
  Li  Li11      1.0  0.55125  0.59331  0.15489  1.0000
  Li  Li12      1.0  0.73308  0.91151  0.10939  1.0000
  Li  Li13      1.0  0.36945  0.27518  0.20031  1.0000
  Li  Li14      1.0  0.00582  0.63879  0.29123  1.0000
  Li  Li15      1.0  0.18765  0.95696  0.24574  1.0000
  Li  Li16      1.0  0.82400  0.32058  0.33668  1.0000
  Li  Li17      1.0  0.64218  0.50245  0.88211  1.0000
  Li  Li18      1.0  0.46037  0.18419  0.92756  1.0000
  Li  Li19      1.0  0.09670  0.54788  0.01850  1.0000
  Li  Li20      1.0  0.27857  0.86605  0.97305  1.0000
  Li  Li21      1.0  0.91492  0.22971  0.06393  1.0000
  Li  Li22      1.0  0.82396  0.82058  0.83674  1.0000
  Li  Li23      1.0  0.63133  0.72569  0.80067  1.0000
  Li  Li24      1.0  0.26770  0.08940  0.89155  1.0000
  Li  Li25      1.0  0.44952  0.40751  0.84604  1.0000
  Li  Li26      1.0  0.08589  0.77114  0.93706  1.0000
  Li  Li27      1.0  0.90405  0.45296  0.98248  1.0000
  Li  Li28      1.0  0.35860  0.99848  0.61882  1.0000
  Li  Li29      1.0  0.54044  0.31661  0.57336  1.0000
  Li  Li30      1.0  0.17676  0.68026  0.66427  1.0000
  Li  Li31      1.0  0.81318  0.04386  0.75522  1.0000
  Li  Li32      1.0  0.99495  0.36207  0.70974  1.0000
  Li  Li33      1.0  0.44953  0.90754  0.34607  1.0000
  Li  Li34      1.0  0.63134  0.22571  0.30066  1.0000
  Li  Li35      1.0  0.26766  0.58935  0.39155  1.0000
  Li  Li36      1.0  0.90403  0.95297  0.48248  1.0000
  Li  Li37      1.0  0.08588  0.27117  0.43703  1.0000
  Li  Li38      1.0  0.72222  0.63479  0.52790  1.0000
  Li  Li39      1.0  0.54041  0.81666  0.07335  1.0000
  Li  Li40      1.0  0.35857  0.49843  0.11888  1.0000
  Li  Li41      1.0  0.99495  0.86209  0.20976  1.0000
  Li  Li42      1.0  0.17681  0.18024  0.16424  1.0000
  Li  Li43      1.0  0.81314  0.54386  0.25522  1.0000
  Li  Li44      1.0  0.72226  0.13479  0.02789  1.0000
  Sn  Sn1       1.0  0.90946  0.59135  0.77319  1.0000
  Sn  Sn2       1.0  0.54582  0.95493  0.86411  1.0000
  Sn  Sn3       1.0  0.72769  0.27317  0.81867  1.0000
  Sn  Sn4       1.0  0.36406  0.63674  0.90955  1.0000
  Sn  Sn5       1.0  0.18225  0.31865  0.95500  1.0000
  Sn  Sn6       1.0  0.63672  0.86404  0.59138  1.0000
  Sn  Sn7       1.0  0.81858  0.18218  0.54594  1.0000
  Sn  Sn8       1.0  0.45493  0.54592  0.63683  1.0000
  Sn  Sn9       1.0  0.09134  0.90948  0.72775  1.0000
  Sn  Sn10      1.0  0.27315  0.22772  0.68226  1.0000
  Sn  Sn11      1.0  0.72764  0.77318  0.31867  1.0000
  Sn  Sn12      1.0  0.90953  0.09135  0.27318  1.0000
  Sn  Sn13      1.0  0.54584  0.45494  0.36412  1.0000
  Sn  Sn14      1.0  0.18225  0.81866  0.45499  1.0000
  Sn  Sn15      1.0  0.36403  0.13677  0.40954  1.0000
  Sn  Sn16      1.0  0.00040  0.50043  0.50045  1.0000
  Sn  Sn17      1.0  0.81852  0.68220  0.04596  1.0000
  Sn  Sn18      1.0  0.63676  0.36402  0.09138  1.0000
  Sn  Sn19      1.0  0.27317  0.72771  0.18225  1.0000
  Sn  Sn20      1.0  0.45493  0.04594  0.13682  1.0000
  Sn  Sn21      1.0  0.09130  0.40947  0.22774  1.0000
  Sn  Sn22      1.0  0.00044  0.00043  0.00044  1.0000
  O   O1        1.0  0.49596  0.54014  0.81857  1.0000
  O   O2        1.0  0.13230  0.90376  0.90953  1.0000
  O   O3        1.0  0.31415  0.22201  0.86404  1.0000
  O   O4        1.0  0.95047  0.58558  0.95498  1.0000
  O   O5        1.0  0.76867  0.26744  0.00043  1.0000
  O   O6        1.0  0.22321  0.81289  0.63676  1.0000
  O   O7        1.0  0.40507  0.13107  0.59131  1.0000
  O   O8        1.0  0.04135  0.49471  0.68227  1.0000
  O   O9        1.0  0.67774  0.85830  0.77314  1.0000
  O   O10       1.0  0.85956  0.17650  0.72772  1.0000
  O   O11       1.0  0.31410  0.72198  0.36404  1.0000
  O   O12       1.0  0.49596  0.04015  0.31857  1.0000
  O   O13       1.0  0.13230  0.40380  0.40954  1.0000
  O   O14       1.0  0.76864  0.76742  0.50044  1.0000
  O   O15       1.0  0.95047  0.08557  0.45497  1.0000
  O   O16       1.0  0.58685  0.44926  0.54588  1.0000
  O   O17       1.0  0.40502  0.63104  0.09135  1.0000
  O   O18       1.0  0.22320  0.31290  0.13679  1.0000
  O   O19       1.0  0.85953  0.67650  0.22776  1.0000
  O   O20       1.0  0.04140  0.99473  0.18222  1.0000
  O   O21       1.0  0.67776  0.35832  0.27314  1.0000
  O   O22       1.0  0.58685  0.94924  0.04587  1.0000
  O   O23       1.0  0.86847  0.59708  0.59143  1.0000
  O   O24       1.0  0.50483  0.96069  0.68232  1.0000
  O   O25       1.0  0.68669  0.27887  0.63687  1.0000
  O   O26       1.0  0.32300  0.64250  0.72779  1.0000
  O   O27       1.0  0.14125  0.32438  0.77321  1.0000
  O   O28       1.0  0.59575  0.86982  0.40960  1.0000
  O   O29       1.0  0.77757  0.18795  0.36415  1.0000
  O   O30       1.0  0.41391  0.55161  0.45504  1.0000
  O   O31       1.0  0.05029  0.91524  0.54597  1.0000
  O   O32       1.0  0.23214  0.23342  0.50048  1.0000
  O   O33       1.0  0.68665  0.77887  0.13689  1.0000
  O   O34       1.0  0.86851  0.09707  0.09139  1.0000
  O   O35       1.0  0.50484  0.46067  0.18232  1.0000
  O   O36       1.0  0.14122  0.82435  0.27319  1.0000
  O   O37       1.0  0.32306  0.14254  0.22777  1.0000
  O   O38       1.0  0.95940  0.50615  0.31869  1.0000
  O   O39       1.0  0.77756  0.68794  0.86417  1.0000
  O   O40       1.0  0.59575  0.36981  0.90960  1.0000
  O   O41       1.0  0.23214  0.73342  0.00049  1.0000
  O   O42       1.0  0.41397  0.05161  0.95503  1.0000
  O   O43       1.0  0.05031  0.41526  0.04598  1.0000
  O   O44       1.0  0.95943  0.00616  0.81866  1.0000
  O   O45       1.0  0.78626  0.47306  0.77283  1.0000
  O   O46       1.0  0.42266  0.83665  0.86377  1.0000
  O   O47       1.0  0.60450  0.15484  0.81831  1.0000
  O   O48       1.0  0.24081  0.51848  0.90921  1.0000
  O   O49       1.0  0.05902  0.20036  0.95463  1.0000
  O   O50       1.0  0.51350  0.74577  0.59103  1.0000
  O   O51       1.0  0.69534  0.06393  0.54555  1.0000
  O   O52       1.0  0.33175  0.42762  0.63647  1.0000
  O   O53       1.0  0.96806  0.79123  0.72741  1.0000
  O   O54       1.0  0.14995  0.10941  0.68192  1.0000
  O   O55       1.0  0.60443  0.65489  0.31832  1.0000
  O   O56       1.0  0.78628  0.97304  0.27282  1.0000
  O   O57       1.0  0.42263  0.33668  0.36377  1.0000
  O   O58       1.0  0.05898  0.70035  0.45467  1.0000
  O   O59       1.0  0.24079  0.01851  0.40920  1.0000
  O   O60       1.0  0.87720  0.38211  0.50012  1.0000
  O   O61       1.0  0.69533  0.56392  0.04561  1.0000
  O   O62       1.0  0.51356  0.24575  0.09102  1.0000
  O   O63       1.0  0.14992  0.60941  0.18194  1.0000
  O   O64       1.0  0.33175  0.92763  0.13648  1.0000
  O   O65       1.0  0.96810  0.29121  0.22740  1.0000
  O   O66       1.0  0.87720  0.88212  0.00017  1.0000
  O   O67       1.0  0.57813  0.66420  0.63720  1.0000
  O   O68       1.0  0.21452  0.02780  0.72810  1.0000
  O   O69       1.0  0.39634  0.34600  0.68260  1.0000
  O   O70       1.0  0.03267  0.70964  0.77358  1.0000
  O   O71       1.0  0.85084  0.39148  0.81902  1.0000
  O   O72       1.0  0.30543  0.93693  0.45536  1.0000
  O   O73       1.0  0.48724  0.25507  0.40991  1.0000
  O   O74       1.0  0.12358  0.61875  0.50083  1.0000
  O   O75       1.0  0.75993  0.98234  0.59177  1.0000
  O   O76       1.0  0.94176  0.30052  0.54628  1.0000
  O   O77       1.0  0.39631  0.84602  0.18263  1.0000
  O   O78       1.0  0.57820  0.16419  0.13719  1.0000
  O   O79       1.0  0.21449  0.52780  0.22812  1.0000
  O   O80       1.0  0.85086  0.89146  0.31902  1.0000
  O   O81       1.0  0.03272  0.20963  0.27356  1.0000
  O   O82       1.0  0.66903  0.57327  0.36446  1.0000
  O   O83       1.0  0.48723  0.75506  0.90993  1.0000
  O   O84       1.0  0.30546  0.43693  0.95540  1.0000
  O   O85       1.0  0.94177  0.80050  0.04632  1.0000
  O   O86       1.0  0.12359  0.11874  0.00079  1.0000
  O   O87       1.0  0.75994  0.48235  0.09176  1.0000
  O   O88       1.0  0.66907  0.07323  0.86446  1.0000
