data_image0
_chemical_formula_structural       Na16Y16Si16O64
_chemical_formula_sum              "Na16 Y16 Si16 O64"
_cell_length_a       10.2383
_cell_length_b       12.7999
_cell_length_c       11.1508
_cell_angle_alpha    89.9978
_cell_angle_beta     90.0019
_cell_angle_gamma    90.0029

_space_group_name_H-M_alt    "P 1"
_space_group_IT_number       1

loop_
  _space_group_symop_operation_xyz
  'x, y, z'

loop_
  _atom_site_type_symbol
  _atom_site_label
  _atom_site_symmetry_multiplicity
  _atom_site_fract_x
  _atom_site_fract_y
  _atom_site_fract_z
  _atom_site_occupancy
  Na  Na1       1.0  0.25104  0.24995  0.00055  1.0000
  Na  Na2       1.0  0.25101  0.74992  0.00056  1.0000
  Na  Na3       1.0  0.75105  0.24992  0.00060  1.0000
  Na  Na4       1.0  0.75102  0.74990  0.00059  1.0000
  Na  Na5       1.0  0.25077  0.00044  0.00060  1.0000
  Na  Na6       1.0  0.25079  0.50041  0.00056  1.0000
  Na  Na7       1.0  0.75079  0.00044  0.00059  1.0000
  Na  Na8       1.0  0.75077  0.50046  0.00058  1.0000
  Na  Na9       1.0  0.99960  0.00073  0.50062  1.0000
  Na  Na10      1.0  0.99958  0.50077  0.50062  1.0000
  Na  Na11      1.0  0.49960  0.00071  0.50060  1.0000
  Na  Na12      1.0  0.49960  0.50075  0.50064  1.0000
  Na  Na13      1.0  0.00086  0.25054  0.49977  1.0000
  Na  Na14      1.0  0.00089  0.75055  0.49977  1.0000
  Na  Na15      1.0  0.50084  0.25053  0.49978  1.0000
  Na  Na16      1.0  0.50085  0.75056  0.49977  1.0000
  Y   Y1        1.0  0.25090  0.12536  0.28027  1.0000
  Y   Y2        1.0  0.25090  0.62535  0.28027  1.0000
  Y   Y3        1.0  0.75092  0.12537  0.28027  1.0000
  Y   Y4        1.0  0.75090  0.62536  0.28029  1.0000
  Y   Y5        1.0  0.24997  0.37536  0.72070  1.0000
  Y   Y6        1.0  0.24998  0.87534  0.72073  1.0000
  Y   Y7        1.0  0.75001  0.37535  0.72070  1.0000
  Y   Y8        1.0  0.74999  0.87535  0.72075  1.0000
  Y   Y9        1.0  0.00002  0.12543  0.78020  1.0000
  Y   Y10       1.0  0.00000  0.62541  0.78017  1.0000
  Y   Y11       1.0  0.50005  0.12542  0.78020  1.0000
  Y   Y12       1.0  0.50003  0.62542  0.78019  1.0000
  Y   Y13       1.0  0.50094  0.37541  0.22061  1.0000
  Y   Y14       1.0  0.50091  0.87546  0.22065  1.0000
  Y   Y15       1.0  0.00094  0.37540  0.22063  1.0000
  Y   Y16       1.0  0.00091  0.87540  0.22064  1.0000
  Si  Si1       1.0  0.28164  0.37540  0.40225  1.0000
  Si  Si2       1.0  0.28161  0.87540  0.40229  1.0000
  Si  Si3       1.0  0.78164  0.37541  0.40223  1.0000
  Si  Si4       1.0  0.78160  0.87542  0.40229  1.0000
  Si  Si5       1.0  0.46931  0.37539  0.90229  1.0000
  Si  Si6       1.0  0.46931  0.87535  0.90231  1.0000
  Si  Si7       1.0  0.96932  0.37535  0.90231  1.0000
  Si  Si8       1.0  0.96935  0.87535  0.90232  1.0000
  Si  Si9       1.0  0.21917  0.12538  0.59860  1.0000
  Si  Si10      1.0  0.21915  0.62538  0.59857  1.0000
  Si  Si11      1.0  0.71919  0.12540  0.59859  1.0000
  Si  Si12      1.0  0.71918  0.62539  0.59858  1.0000
  Si  Si13      1.0  0.03176  0.12538  0.09862  1.0000
  Si  Si14      1.0  0.03179  0.62537  0.09861  1.0000
  Si  Si15      1.0  0.53177  0.12536  0.09864  1.0000
  Si  Si16      1.0  0.53174  0.62538  0.09865  1.0000
  O   O1        1.0  0.37460  0.12529  0.11162  1.0000
  O   O2        1.0  0.37458  0.62529  0.11158  1.0000
  O   O3        1.0  0.87460  0.12537  0.11157  1.0000
  O   O4        1.0  0.87462  0.62536  0.11160  1.0000
  O   O5        1.0  0.12651  0.37527  0.88950  1.0000
  O   O6        1.0  0.12651  0.87527  0.88952  1.0000
  O   O7        1.0  0.62649  0.37537  0.88947  1.0000
  O   O8        1.0  0.62650  0.87533  0.88953  1.0000
  O   O9        1.0  0.37635  0.12548  0.61146  1.0000
  O   O10       1.0  0.37633  0.62545  0.61146  1.0000
  O   O11       1.0  0.87635  0.12548  0.61145  1.0000
  O   O12       1.0  0.87635  0.62548  0.61141  1.0000
  O   O13       1.0  0.12450  0.37550  0.38931  1.0000
  O   O14       1.0  0.12445  0.87552  0.38934  1.0000
  O   O15       1.0  0.62448  0.37551  0.38930  1.0000
  O   O16       1.0  0.62444  0.87552  0.38935  1.0000
  O   O17       1.0  0.41523  0.37535  0.03939  1.0000
  O   O18       1.0  0.41523  0.87532  0.03944  1.0000
  O   O19       1.0  0.91523  0.37533  0.03942  1.0000
  O   O20       1.0  0.91524  0.87535  0.03943  1.0000
  O   O21       1.0  0.08578  0.12534  0.96149  1.0000
  O   O22       1.0  0.08571  0.62534  0.96146  1.0000
  O   O23       1.0  0.58571  0.12534  0.96149  1.0000
  O   O24       1.0  0.58570  0.62535  0.96150  1.0000
  O   O25       1.0  0.33561  0.37535  0.53939  1.0000
  O   O26       1.0  0.33562  0.87534  0.53942  1.0000
  O   O27       1.0  0.83562  0.37536  0.53939  1.0000
  O   O28       1.0  0.83558  0.87533  0.53942  1.0000
  O   O29       1.0  0.16513  0.12533  0.46146  1.0000
  O   O30       1.0  0.16509  0.62536  0.46146  1.0000
  O   O31       1.0  0.66515  0.12537  0.46145  1.0000
  O   O32       1.0  0.66511  0.62535  0.46146  1.0000
  O   O33       1.0  0.35158  0.27603  0.33033  1.0000
  O   O34       1.0  0.35153  0.77604  0.33036  1.0000
  O   O35       1.0  0.85157  0.27604  0.33032  1.0000
  O   O36       1.0  0.85153  0.77606  0.33037  1.0000
  O   O37       1.0  0.14928  0.02602  0.67055  1.0000
  O   O38       1.0  0.14926  0.52601  0.67050  1.0000
  O   O39       1.0  0.64931  0.02602  0.67051  1.0000
  O   O40       1.0  0.64928  0.52600  0.67050  1.0000
  O   O41       1.0  0.39936  0.27601  0.83040  1.0000
  O   O42       1.0  0.39935  0.77598  0.83042  1.0000
  O   O43       1.0  0.89933  0.27599  0.83043  1.0000
  O   O44       1.0  0.89934  0.77599  0.83045  1.0000
  O   O45       1.0  0.10166  0.02601  0.17052  1.0000
  O   O46       1.0  0.10169  0.52600  0.17050  1.0000
  O   O47       1.0  0.60174  0.02600  0.17053  1.0000
  O   O48       1.0  0.60172  0.52602  0.17050  1.0000
  O   O49       1.0  0.10168  0.22473  0.17056  1.0000
  O   O50       1.0  0.10169  0.72474  0.17054  1.0000
  O   O51       1.0  0.60164  0.22473  0.17055  1.0000
  O   O52       1.0  0.60160  0.72475  0.17061  1.0000
  O   O53       1.0  0.39934  0.47475  0.83039  1.0000
  O   O54       1.0  0.39940  0.97472  0.83038  1.0000
  O   O55       1.0  0.89943  0.47472  0.83037  1.0000
  O   O56       1.0  0.89944  0.97473  0.83039  1.0000
  O   O57       1.0  0.14923  0.22477  0.67044  1.0000
  O   O58       1.0  0.14925  0.72476  0.67044  1.0000
  O   O59       1.0  0.64927  0.22477  0.67046  1.0000
  O   O60       1.0  0.64928  0.72477  0.67047  1.0000
  O   O61       1.0  0.35165  0.47475  0.33038  1.0000
  O   O62       1.0  0.35162  0.97478  0.33043  1.0000
  O   O63       1.0  0.85164  0.47477  0.33036  1.0000
  O   O64       1.0  0.85161  0.97478  0.33041  1.0000
