data_image0
_chemical_formula_structural       Rb24Y24O48
_chemical_formula_sum              "Rb24 Y24 O48"
_cell_length_a       13.1703
_cell_length_b       10.4441
_cell_length_c       12.0598
_cell_angle_alpha    90
_cell_angle_beta     98.7772
_cell_angle_gamma    90

_space_group_name_H-M_alt    "P 1"
_space_group_IT_number       1

loop_
  _space_group_symop_operation_xyz
  'x, y, z'

loop_
  _atom_site_type_symbol
  _atom_site_label
  _atom_site_symmetry_multiplicity
  _atom_site_fract_x
  _atom_site_fract_y
  _atom_site_fract_z
  _atom_site_occupancy
  Rb  Rb1       1.0  0.00046  0.83378  0.75053  1.0000
  Rb  Rb2       1.0  0.00036  0.50054  0.75041  1.0000
  Rb  Rb3       1.0  0.00028  0.66736  0.50028  1.0000
  Rb  Rb4       1.0  0.50035  0.66725  0.75037  1.0000
  Rb  Rb5       1.0  0.00046  0.83371  0.25029  1.0000
  Rb  Rb6       1.0  0.50034  0.83363  0.50028  1.0000
  Rb  Rb7       1.0  0.00052  0.16737  0.75029  1.0000
  Rb  Rb8       1.0  0.00054  0.33373  0.50018  1.0000
  Rb  Rb9       1.0  0.50038  0.33381  0.75030  1.0000
  Rb  Rb10      1.0  0.00054  0.50032  0.25052  1.0000
  Rb  Rb11      1.0  0.50056  0.50050  0.50062  1.0000
  Rb  Rb12      1.0  0.00046  0.66693  0.00067  1.0000
  Rb  Rb13      1.0  0.50053  0.66709  0.25058  1.0000
  Rb  Rb14      1.0  0.50045  0.83372  0.00049  1.0000
  Rb  Rb15      1.0  0.00058  0.00066  0.50025  1.0000
  Rb  Rb16      1.0  0.50033  0.00020  0.75047  1.0000
  Rb  Rb17      1.0  0.00034  0.16685  0.25025  1.0000
  Rb  Rb18      1.0  0.50051  0.16702  0.50064  1.0000
  Rb  Rb19      1.0  0.00033  0.33365  0.00040  1.0000
  Rb  Rb20      1.0  0.50044  0.33367  0.25062  1.0000
  Rb  Rb21      1.0  0.50039  0.50053  0.00041  1.0000
  Rb  Rb22      1.0  0.00044  0.00048  0.00015  1.0000
  Rb  Rb23      1.0  0.50046  0.00029  0.25058  1.0000
  Rb  Rb24      1.0  0.50065  0.16700  0.00034  1.0000
  Y   Y1        1.0  0.75052  0.83374  0.87549  1.0000
  Y   Y2        1.0  0.75038  0.50046  0.87549  1.0000
  Y   Y3        1.0  0.75051  0.66714  0.62551  1.0000
  Y   Y4        1.0  0.25044  0.66709  0.87544  1.0000
  Y   Y5        1.0  0.75044  0.83385  0.37552  1.0000
  Y   Y6        1.0  0.25033  0.83375  0.62536  1.0000
  Y   Y7        1.0  0.75043  0.16715  0.87538  1.0000
  Y   Y8        1.0  0.75056  0.33386  0.62548  1.0000
  Y   Y9        1.0  0.25048  0.33378  0.87541  1.0000
  Y   Y10       1.0  0.75051  0.50048  0.37541  1.0000
  Y   Y11       1.0  0.25050  0.50049  0.62541  1.0000
  Y   Y12       1.0  0.75041  0.66718  0.12547  1.0000
  Y   Y13       1.0  0.25050  0.66711  0.37542  1.0000
  Y   Y14       1.0  0.25043  0.83384  0.12541  1.0000
  Y   Y15       1.0  0.75049  0.00052  0.62550  1.0000
  Y   Y16       1.0  0.25044  0.00051  0.87536  1.0000
  Y   Y17       1.0  0.75048  0.16720  0.37549  1.0000
  Y   Y18       1.0  0.25050  0.16710  0.62530  1.0000
  Y   Y19       1.0  0.75044  0.33373  0.12546  1.0000
  Y   Y20       1.0  0.25058  0.33378  0.37545  1.0000
  Y   Y21       1.0  0.25053  0.50052  0.12547  1.0000
  Y   Y22       1.0  0.75042  0.00040  0.12543  1.0000
  Y   Y23       1.0  0.25041  0.00051  0.37535  1.0000
  Y   Y24       1.0  0.25056  0.16721  0.12538  1.0000
  O   O1        1.0  0.16263  0.83383  0.94407  1.0000
  O   O2        1.0  0.16265  0.50037  0.94416  1.0000
  O   O3        1.0  0.16258  0.66702  0.69412  1.0000
  O   O4        1.0  0.66269  0.66726  0.94417  1.0000
  O   O5        1.0  0.16252  0.83382  0.44402  1.0000
  O   O6        1.0  0.66271  0.83376  0.69426  1.0000
  O   O7        1.0  0.16274  0.16721  0.94412  1.0000
  O   O8        1.0  0.16275  0.33376  0.69401  1.0000
  O   O9        1.0  0.66268  0.33371  0.94421  1.0000
  O   O10       1.0  0.16267  0.50046  0.44419  1.0000
  O   O11       1.0  0.66264  0.50047  0.69413  1.0000
  O   O12       1.0  0.16264  0.66714  0.19422  1.0000
  O   O13       1.0  0.66265  0.66714  0.44423  1.0000
  O   O14       1.0  0.66264  0.83387  0.19417  1.0000
  O   O15       1.0  0.16263  0.00049  0.69407  1.0000
  O   O16       1.0  0.66273  0.00044  0.94407  1.0000
  O   O17       1.0  0.16268  0.16715  0.44402  1.0000
  O   O18       1.0  0.66268  0.16729  0.69416  1.0000
  O   O19       1.0  0.16273  0.33379  0.19411  1.0000
  O   O20       1.0  0.66274  0.33389  0.44412  1.0000
  O   O21       1.0  0.66269  0.50043  0.19415  1.0000
  O   O22       1.0  0.16267  0.00065  0.19403  1.0000
  O   O23       1.0  0.66257  0.00057  0.44423  1.0000
  O   O24       1.0  0.66273  0.16707  0.19423  1.0000
  O   O25       1.0  0.33819  0.83378  0.80667  1.0000
  O   O26       1.0  0.33829  0.50045  0.80672  1.0000
  O   O27       1.0  0.33820  0.66722  0.55667  1.0000
  O   O28       1.0  0.83830  0.66700  0.80684  1.0000
  O   O29       1.0  0.33821  0.83379  0.30667  1.0000
  O   O30       1.0  0.83820  0.83383  0.55680  1.0000
  O   O31       1.0  0.33825  0.16702  0.80661  1.0000
  O   O32       1.0  0.33837  0.33379  0.55670  1.0000
  O   O33       1.0  0.83825  0.33391  0.80678  1.0000
  O   O34       1.0  0.33825  0.50044  0.30675  1.0000
  O   O35       1.0  0.83830  0.50052  0.55667  1.0000
  O   O36       1.0  0.33823  0.66722  0.05681  1.0000
  O   O37       1.0  0.83825  0.66724  0.30676  1.0000
  O   O38       1.0  0.83837  0.83381  0.05684  1.0000
  O   O39       1.0  0.33824  0.00032  0.55663  1.0000
  O   O40       1.0  0.83833  0.00049  0.80670  1.0000
  O   O41       1.0  0.33842  0.16709  0.30684  1.0000
  O   O42       1.0  0.83824  0.16721  0.55680  1.0000
  O   O43       1.0  0.33842  0.33392  0.05665  1.0000
  O   O44       1.0  0.83835  0.33375  0.30670  1.0000
  O   O45       1.0  0.83826  0.50049  0.05684  1.0000
  O   O46       1.0  0.33827  0.00052  0.05666  1.0000
  O   O47       1.0  0.83828  0.00047  0.30683  1.0000
  O   O48       1.0  0.83830  0.16698  0.05669  1.0000
