data_image0
_chemical_formula_structural       K32In32O64
_chemical_formula_sum              "K32 In32 O64"
_cell_length_a       13.2634
_cell_length_b       11.4862
_cell_length_c       12.3561
_cell_angle_alpha    94.4503
_cell_angle_beta     97.709
_cell_angle_gamma    89.999

_space_group_name_H-M_alt    "P 1"
_space_group_IT_number       1

loop_
  _space_group_symop_operation_xyz
  'x, y, z'

loop_
  _atom_site_type_symbol
  _atom_site_label
  _atom_site_symmetry_multiplicity
  _atom_site_fract_x
  _atom_site_fract_y
  _atom_site_fract_z
  _atom_site_occupancy
  K   K1        1.0  0.59394  0.56294  0.75049  1.0000
  K   K2        1.0  0.53186  0.68794  0.25064  1.0000
  K   K3        1.0  0.34393  0.56312  0.75027  1.0000
  K   K4        1.0  0.28159  0.68785  0.25058  1.0000
  K   K5        1.0  0.09416  0.56276  0.75061  1.0000
  K   K6        1.0  0.03147  0.68813  0.25043  1.0000
  K   K7        1.0  0.84427  0.56302  0.75021  1.0000
  K   K8        1.0  0.78170  0.68789  0.25029  1.0000
  K   K9        1.0  0.65684  0.43815  0.25022  1.0000
  K   K10       1.0  0.46914  0.31273  0.75026  1.0000
  K   K11       1.0  0.40652  0.43767  0.25054  1.0000
  K   K12       1.0  0.21930  0.31273  0.75020  1.0000
  K   K13       1.0  0.15664  0.43816  0.25022  1.0000
  K   K14       1.0  0.96934  0.31279  0.75045  1.0000
  K   K15       1.0  0.90683  0.43818  0.25052  1.0000
  K   K16       1.0  0.71909  0.31296  0.75042  1.0000
  K   K17       1.0  0.59436  0.06274  0.75045  1.0000
  K   K18       1.0  0.53175  0.18800  0.25056  1.0000
  K   K19       1.0  0.34414  0.06308  0.75039  1.0000
  K   K20       1.0  0.28163  0.18795  0.25052  1.0000
  K   K21       1.0  0.09436  0.06313  0.75036  1.0000
  K   K22       1.0  0.03163  0.18818  0.25060  1.0000
  K   K23       1.0  0.84401  0.06287  0.75026  1.0000
  K   K24       1.0  0.78167  0.18805  0.25022  1.0000
  K   K25       1.0  0.65654  0.93787  0.25028  1.0000
  K   K26       1.0  0.46928  0.81309  0.75049  1.0000
  K   K27       1.0  0.40666  0.93790  0.25043  1.0000
  K   K28       1.0  0.21909  0.81313  0.75022  1.0000
  K   K29       1.0  0.15674  0.93785  0.25040  1.0000
  K   K30       1.0  0.96923  0.81307  0.75067  1.0000
  K   K31       1.0  0.90669  0.93826  0.25043  1.0000
  K   K32       1.0  0.71911  0.81304  0.75040  1.0000
  In  In1       1.0  0.68793  0.62550  0.50038  1.0000
  In  In2       1.0  0.62540  0.75045  0.00052  1.0000
  In  In3       1.0  0.43794  0.62536  0.50036  1.0000
  In  In4       1.0  0.37534  0.75049  0.00045  1.0000
  In  In5       1.0  0.18793  0.62549  0.50039  1.0000
  In  In6       1.0  0.12534  0.75048  0.00041  1.0000
  In  In7       1.0  0.93794  0.62552  0.50041  1.0000
  In  In8       1.0  0.87538  0.75055  0.00038  1.0000
  In  In9       1.0  0.75044  0.50049  0.00031  1.0000
  In  In10      1.0  0.56292  0.37541  0.50034  1.0000
  In  In11      1.0  0.50035  0.50046  0.00045  1.0000
  In  In12      1.0  0.31293  0.37551  0.50041  1.0000
  In  In13      1.0  0.25051  0.50047  0.00041  1.0000
  In  In14      1.0  0.06290  0.37555  0.50030  1.0000
  In  In15      1.0  0.00044  0.50050  0.00034  1.0000
  In  In16      1.0  0.81290  0.37554  0.50033  1.0000
  In  In17      1.0  0.68793  0.12544  0.50023  1.0000
  In  In18      1.0  0.62547  0.25050  0.00042  1.0000
  In  In19      1.0  0.43796  0.12546  0.50044  1.0000
  In  In20      1.0  0.37543  0.25041  0.00039  1.0000
  In  In21      1.0  0.18792  0.12542  0.50029  1.0000
  In  In22      1.0  0.12545  0.25055  0.00045  1.0000
  In  In23      1.0  0.93787  0.12548  0.50049  1.0000
  In  In24      1.0  0.87542  0.25049  0.00040  1.0000
  In  In25      1.0  0.75046  0.00053  0.00051  1.0000
  In  In26      1.0  0.56300  0.87555  0.50049  1.0000
  In  In27      1.0  0.50044  0.00046  0.00050  1.0000
  In  In28      1.0  0.31296  0.87549  0.50051  1.0000
  In  In29      1.0  0.25039  0.00049  0.00042  1.0000
  In  In30      1.0  0.06292  0.87547  0.50039  1.0000
  In  In31      1.0  0.00043  0.00060  0.00034  1.0000
  In  In32      1.0  0.81297  0.87546  0.50039  1.0000
  O   O1        1.0  0.73877  0.65943  0.90725  1.0000
  O   O2        1.0  0.67632  0.78451  0.40740  1.0000
  O   O3        1.0  0.48872  0.65945  0.90742  1.0000
  O   O4        1.0  0.42637  0.78433  0.40748  1.0000
  O   O5        1.0  0.23874  0.65937  0.90731  1.0000
  O   O6        1.0  0.17640  0.78444  0.40736  1.0000
  O   O7        1.0  0.98877  0.65940  0.90725  1.0000
  O   O8        1.0  0.92629  0.78432  0.40724  1.0000
  O   O9        1.0  0.80126  0.53452  0.40729  1.0000
  O   O10       1.0  0.61380  0.40939  0.90736  1.0000
  O   O11       1.0  0.55132  0.53421  0.40722  1.0000
  O   O12       1.0  0.36381  0.40932  0.90720  1.0000
  O   O13       1.0  0.30121  0.53436  0.40731  1.0000
  O   O14       1.0  0.11391  0.40937  0.90730  1.0000
  O   O15       1.0  0.05135  0.53449  0.40725  1.0000
  O   O16       1.0  0.86385  0.40939  0.90721  1.0000
  O   O17       1.0  0.73879  0.15940  0.90733  1.0000
  O   O18       1.0  0.67636  0.28433  0.40717  1.0000
  O   O19       1.0  0.48887  0.15920  0.90733  1.0000
  O   O20       1.0  0.42635  0.28436  0.40740  1.0000
  O   O21       1.0  0.23875  0.15948  0.90733  1.0000
  O   O22       1.0  0.17633  0.28445  0.40730  1.0000
  O   O23       1.0  0.98869  0.15944  0.90719  1.0000
  O   O24       1.0  0.92623  0.28440  0.40727  1.0000
  O   O25       1.0  0.80137  0.03433  0.40739  1.0000
  O   O26       1.0  0.61384  0.90934  0.90753  1.0000
  O   O27       1.0  0.55118  0.03432  0.40726  1.0000
  O   O28       1.0  0.36374  0.90946  0.90725  1.0000
  O   O29       1.0  0.30136  0.03439  0.40740  1.0000
  O   O30       1.0  0.11381  0.90947  0.90733  1.0000
  O   O31       1.0  0.05121  0.03430  0.40738  1.0000
  O   O32       1.0  0.86371  0.90943  0.90735  1.0000
  O   O33       1.0  0.44951  0.46661  0.59342  1.0000
  O   O34       1.0  0.38701  0.59157  0.09361  1.0000
  O   O35       1.0  0.19948  0.46658  0.59354  1.0000
  O   O36       1.0  0.13697  0.59156  0.09348  1.0000
  O   O37       1.0  0.94959  0.46658  0.59335  1.0000
  O   O38       1.0  0.88702  0.59160  0.09340  1.0000
  O   O39       1.0  0.69948  0.46656  0.59343  1.0000
  O   O40       1.0  0.63702  0.59159  0.09346  1.0000
  O   O41       1.0  0.51203  0.34148  0.09340  1.0000
  O   O42       1.0  0.32459  0.21654  0.59350  1.0000
  O   O43       1.0  0.26210  0.34160  0.09353  1.0000
  O   O44       1.0  0.07458  0.21654  0.59330  1.0000
  O   O45       1.0  0.01206  0.34157  0.09347  1.0000
  O   O46       1.0  0.82453  0.21671  0.59352  1.0000
  O   O47       1.0  0.76217  0.34167  0.09352  1.0000
  O   O48       1.0  0.57462  0.21649  0.59338  1.0000
  O   O49       1.0  0.44964  0.96655  0.59359  1.0000
  O   O50       1.0  0.38705  0.09149  0.09355  1.0000
  O   O51       1.0  0.19958  0.96660  0.59347  1.0000
  O   O52       1.0  0.13707  0.09170  0.09347  1.0000
  O   O53       1.0  0.94953  0.96657  0.59360  1.0000
  O   O54       1.0  0.88709  0.09168  0.09349  1.0000
  O   O55       1.0  0.69960  0.96670  0.59347  1.0000
  O   O56       1.0  0.63709  0.09165  0.09357  1.0000
  O   O57       1.0  0.51195  0.84159  0.09359  1.0000
  O   O58       1.0  0.32458  0.71654  0.59350  1.0000
  O   O59       1.0  0.26194  0.84151  0.09349  1.0000
  O   O60       1.0  0.07459  0.71660  0.59349  1.0000
  O   O61       1.0  0.01194  0.84167  0.09339  1.0000
  O   O62       1.0  0.82457  0.71667  0.59352  1.0000
  O   O63       1.0  0.76203  0.84160  0.09363  1.0000
  O   O64       1.0  0.57468  0.71651  0.59354  1.0000
