data_image0
_chemical_formula_structural       Y36Bi18O36
_chemical_formula_sum              "Y36 Bi18 O36"
_cell_length_a       11.6123
_cell_length_b       11.6123
_cell_length_c       13.471
_cell_angle_alpha    90
_cell_angle_beta     90
_cell_angle_gamma    90

_space_group_name_H-M_alt    "P 1"
_space_group_IT_number       1

loop_
  _space_group_symop_operation_xyz
  'x, y, z'

loop_
  _atom_site_type_symbol
  _atom_site_label
  _atom_site_symmetry_multiplicity
  _atom_site_fract_x
  _atom_site_fract_y
  _atom_site_fract_z
  _atom_site_occupancy
  Y   Y1        1.0  0.16710  0.16709  0.16890  1.0000
  Y   Y2        1.0  0.16711  0.50034  0.16886  1.0000
  Y   Y3        1.0  0.16708  0.83372  0.16876  1.0000
  Y   Y4        1.0  0.50046  0.16715  0.16894  1.0000
  Y   Y5        1.0  0.50036  0.50036  0.16898  1.0000
  Y   Y6        1.0  0.33380  0.33370  0.66893  1.0000
  Y   Y7        1.0  0.50045  0.83363  0.16892  1.0000
  Y   Y8        1.0  0.33379  0.66702  0.66893  1.0000
  Y   Y9        1.0  0.33369  0.00045  0.66898  1.0000
  Y   Y10       1.0  0.83377  0.16715  0.16878  1.0000
  Y   Y11       1.0  0.83366  0.50045  0.16876  1.0000
  Y   Y12       1.0  0.66712  0.33360  0.66897  1.0000
  Y   Y13       1.0  0.83376  0.83362  0.16875  1.0000
  Y   Y14       1.0  0.66699  0.66691  0.66868  1.0000
  Y   Y15       1.0  0.66703  0.00043  0.66883  1.0000
  Y   Y16       1.0  0.00044  0.33366  0.66902  1.0000
  Y   Y17       1.0  0.00053  0.66686  0.66888  1.0000
  Y   Y18       1.0  0.00043  0.00030  0.66898  1.0000
  Y   Y19       1.0  0.00033  0.00037  0.33182  1.0000
  Y   Y20       1.0  0.00028  0.33381  0.33186  1.0000
  Y   Y21       1.0  0.00049  0.66701  0.33180  1.0000
  Y   Y22       1.0  0.33371  0.00043  0.33181  1.0000
  Y   Y23       1.0  0.33375  0.33387  0.33195  1.0000
  Y   Y24       1.0  0.16717  0.16707  0.83203  1.0000
  Y   Y25       1.0  0.33366  0.66712  0.33185  1.0000
  Y   Y26       1.0  0.16718  0.50032  0.83191  1.0000
  Y   Y27       1.0  0.16721  0.83363  0.83190  1.0000
  Y   Y28       1.0  0.66719  0.00027  0.33177  1.0000
  Y   Y29       1.0  0.66710  0.33372  0.33195  1.0000
  Y   Y30       1.0  0.50042  0.16705  0.83193  1.0000
  Y   Y31       1.0  0.66717  0.66699  0.33197  1.0000
  Y   Y32       1.0  0.50052  0.50034  0.83189  1.0000
  Y   Y33       1.0  0.50052  0.83375  0.83182  1.0000
  Y   Y34       1.0  0.83375  0.16687  0.83207  1.0000
  Y   Y35       1.0  0.83369  0.50035  0.83183  1.0000
  Y   Y36       1.0  0.83382  0.83353  0.83166  1.0000
  Bi  Bi1       1.0  0.00062  0.00031  0.00039  1.0000
  Bi  Bi2       1.0  0.00011  0.33368  0.00050  1.0000
  Bi  Bi3       1.0  0.00017  0.66706  0.00032  1.0000
  Bi  Bi4       1.0  0.33404  0.00031  0.00043  1.0000
  Bi  Bi5       1.0  0.33400  0.33359  0.00034  1.0000
  Bi  Bi6       1.0  0.16726  0.16707  0.50050  1.0000
  Bi  Bi7       1.0  0.33401  0.66694  0.00047  1.0000
  Bi  Bi8       1.0  0.16743  0.50047  0.50032  1.0000
  Bi  Bi9       1.0  0.16693  0.83366  0.50043  1.0000
  Bi  Bi10      1.0  0.66728  0.00057  0.00038  1.0000
  Bi  Bi11      1.0  0.66682  0.33380  0.00036  1.0000
  Bi  Bi12      1.0  0.50021  0.16736  0.50036  1.0000
  Bi  Bi13      1.0  0.66707  0.66715  0.00040  1.0000
  Bi  Bi14      1.0  0.50049  0.50061  0.50053  1.0000
  Bi  Bi15      1.0  0.50021  0.83382  0.50039  1.0000
  Bi  Bi16      1.0  0.83364  0.16711  0.50050  1.0000
  Bi  Bi17      1.0  0.83405  0.50059  0.50029  1.0000
  Bi  Bi18      1.0  0.83376  0.83345  0.50034  1.0000
  O   O1        1.0  0.00031  0.16710  0.25043  1.0000
  O   O2        1.0  0.00032  0.50034  0.25027  1.0000
  O   O3        1.0  0.00046  0.83370  0.25025  1.0000
  O   O4        1.0  0.33377  0.16711  0.25045  1.0000
  O   O5        1.0  0.33376  0.50043  0.25045  1.0000
  O   O6        1.0  0.16707  0.33366  0.75039  1.0000
  O   O7        1.0  0.33367  0.83375  0.25024  1.0000
  O   O8        1.0  0.16714  0.66695  0.75038  1.0000
  O   O9        1.0  0.16710  0.00040  0.75052  1.0000
  O   O10       1.0  0.66720  0.16705  0.25040  1.0000
  O   O11       1.0  0.66707  0.50042  0.25034  1.0000
  O   O12       1.0  0.50044  0.33362  0.75040  1.0000
  O   O13       1.0  0.66713  0.83361  0.25036  1.0000
  O   O14       1.0  0.50049  0.66706  0.75044  1.0000
  O   O15       1.0  0.50042  0.00038  0.75038  1.0000
  O   O16       1.0  0.83376  0.33366  0.75055  1.0000
  O   O17       1.0  0.83374  0.66690  0.75013  1.0000
  O   O18       1.0  0.83377  0.00029  0.75031  1.0000
  O   O19       1.0  0.16702  0.00047  0.25039  1.0000
  O   O20       1.0  0.16703  0.33372  0.25036  1.0000
  O   O21       1.0  0.16711  0.66703  0.25027  1.0000
  O   O22       1.0  0.50044  0.00036  0.25034  1.0000
  O   O23       1.0  0.50049  0.33378  0.25048  1.0000
  O   O24       1.0  0.33379  0.16706  0.75043  1.0000
  O   O25       1.0  0.50042  0.66705  0.25058  1.0000
  O   O26       1.0  0.33381  0.50035  0.75043  1.0000
  O   O27       1.0  0.33382  0.83378  0.75035  1.0000
  O   O28       1.0  0.83382  0.00039  0.25017  1.0000
  O   O29       1.0  0.83365  0.33382  0.25031  1.0000
  O   O30       1.0  0.66715  0.16695  0.75050  1.0000
  O   O31       1.0  0.83376  0.66703  0.25038  1.0000
  O   O32       1.0  0.66709  0.50033  0.75025  1.0000
  O   O33       1.0  0.66711  0.83367  0.75012  1.0000
  O   O34       1.0  0.00043  0.16704  0.75054  1.0000
  O   O35       1.0  0.00043  0.50030  0.75046  1.0000
  O   O36       1.0  0.00054  0.83359  0.75036  1.0000
