data_image0
_chemical_formula_structural       Na4Ta16Bi20O72
_chemical_formula_sum              "Na4 Ta16 Bi20 O72"
_cell_length_a       12.8305
_cell_length_b       10.9071
_cell_length_c       10.9963
_cell_angle_alpha    90.0142
_cell_angle_beta     89.9927
_cell_angle_gamma    102.277

_space_group_name_H-M_alt    "P 1"
_space_group_IT_number       1

loop_
  _space_group_symop_operation_xyz
  'x, y, z'

loop_
  _atom_site_type_symbol
  _atom_site_label
  _atom_site_symmetry_multiplicity
  _atom_site_fract_x
  _atom_site_fract_y
  _atom_site_fract_z
  _atom_site_occupancy
  Na  Na1       1.0  0.00019  0.12912  0.24256  1.0000
  Na  Na2       1.0  0.00020  0.12915  0.74257  1.0000
  Na  Na3       1.0  0.00019  0.62916  0.24256  1.0000
  Na  Na4       1.0  0.00019  0.62916  0.74257  1.0000
  Ta  Ta1       1.0  0.16650  0.16861  0.47625  1.0000
  Ta  Ta2       1.0  0.16648  0.16860  0.97625  1.0000
  Ta  Ta3       1.0  0.16650  0.66861  0.47624  1.0000
  Ta  Ta4       1.0  0.16650  0.66860  0.97625  1.0000
  Ta  Ta5       1.0  0.83449  0.08559  0.47630  1.0000
  Ta  Ta6       1.0  0.83449  0.08560  0.97632  1.0000
  Ta  Ta7       1.0  0.83447  0.58558  0.47625  1.0000
  Ta  Ta8       1.0  0.83448  0.58560  0.97625  1.0000
  Ta  Ta9       1.0  0.83331  0.33512  0.22951  1.0000
  Ta  Ta10      1.0  0.83332  0.33511  0.72949  1.0000
  Ta  Ta11      1.0  0.83331  0.83514  0.22948  1.0000
  Ta  Ta12      1.0  0.83330  0.83515  0.72948  1.0000
  Ta  Ta13      1.0  0.16768  0.41872  0.22947  1.0000
  Ta  Ta14      1.0  0.16768  0.41871  0.72946  1.0000
  Ta  Ta15      1.0  0.16766  0.91871  0.22946  1.0000
  Ta  Ta16      1.0  0.16767  0.91872  0.72945  1.0000
  Bi  Bi1       1.0  0.00053  0.38179  0.00405  1.0000
  Bi  Bi2       1.0  0.00055  0.38176  0.50404  1.0000
  Bi  Bi3       1.0  0.00055  0.88177  0.00403  1.0000
  Bi  Bi4       1.0  0.00053  0.88175  0.50406  1.0000
  Bi  Bi5       1.0  0.60275  0.26038  0.01298  1.0000
  Bi  Bi6       1.0  0.60275  0.26038  0.51298  1.0000
  Bi  Bi7       1.0  0.60276  0.76039  0.01298  1.0000
  Bi  Bi8       1.0  0.60276  0.76041  0.51298  1.0000
  Bi  Bi9       1.0  0.39826  0.45925  0.01303  1.0000
  Bi  Bi10      1.0  0.39823  0.45923  0.51302  1.0000
  Bi  Bi11      1.0  0.39826  0.95924  0.01300  1.0000
  Bi  Bi12      1.0  0.39826  0.95924  0.51303  1.0000
  Bi  Bi13      1.0  0.40059  0.23614  0.26172  1.0000
  Bi  Bi14      1.0  0.40058  0.23614  0.76173  1.0000
  Bi  Bi15      1.0  0.40059  0.73614  0.26177  1.0000
  Bi  Bi16      1.0  0.40061  0.73615  0.76172  1.0000
  Bi  Bi17      1.0  0.60045  0.03615  0.26173  1.0000
  Bi  Bi18      1.0  0.60044  0.03612  0.76171  1.0000
  Bi  Bi19      1.0  0.60044  0.53613  0.26173  1.0000
  Bi  Bi20      1.0  0.60045  0.53614  0.76174  1.0000
  O   O1        1.0  0.83055  0.43212  0.07085  1.0000
  O   O2        1.0  0.83055  0.43213  0.57084  1.0000
  O   O3        1.0  0.83057  0.93212  0.07081  1.0000
  O   O4        1.0  0.83054  0.93213  0.57082  1.0000
  O   O5        1.0  0.17044  0.01708  0.07078  1.0000
  O   O6        1.0  0.17044  0.01708  0.57077  1.0000
  O   O7        1.0  0.17045  0.51709  0.07077  1.0000
  O   O8        1.0  0.17043  0.51708  0.57079  1.0000
  O   O9        1.0  0.17847  0.06739  0.32470  1.0000
  O   O10       1.0  0.17845  0.06739  0.82472  1.0000
  O   O11       1.0  0.17846  0.56740  0.32469  1.0000
  O   O12       1.0  0.17843  0.56737  0.82470  1.0000
  O   O13       1.0  0.82257  0.47845  0.32472  1.0000
  O   O14       1.0  0.82258  0.47844  0.82471  1.0000
  O   O15       1.0  0.82257  0.97844  0.32472  1.0000
  O   O16       1.0  0.82256  0.97845  0.82470  1.0000
  O   O17       1.0  0.50221  0.36989  0.12630  1.0000
  O   O18       1.0  0.50218  0.36990  0.62631  1.0000
  O   O19       1.0  0.50220  0.86988  0.12630  1.0000
  O   O20       1.0  0.50220  0.86988  0.62630  1.0000
  O   O21       1.0  0.49884  0.11907  0.12632  1.0000
  O   O22       1.0  0.49883  0.11905  0.62632  1.0000
  O   O23       1.0  0.49882  0.61904  0.12633  1.0000
  O   O24       1.0  0.49881  0.61905  0.62631  1.0000
  O   O25       1.0  0.49998  0.12992  0.37524  1.0000
  O   O26       1.0  0.49997  0.12991  0.87526  1.0000
  O   O27       1.0  0.49997  0.62992  0.37527  1.0000
  O   O28       1.0  0.49995  0.62990  0.87526  1.0000
  O   O29       1.0  0.50106  0.38018  0.37527  1.0000
  O   O30       1.0  0.50108  0.38018  0.87527  1.0000
  O   O31       1.0  0.50107  0.88017  0.37527  1.0000
  O   O32       1.0  0.50107  0.88017  0.87527  1.0000
  O   O33       1.0  0.87341  0.20341  0.11017  1.0000
  O   O34       1.0  0.87343  0.20340  0.61017  1.0000
  O   O35       1.0  0.87343  0.70343  0.11018  1.0000
  O   O36       1.0  0.87343  0.70343  0.61021  1.0000
  O   O37       1.0  0.12755  0.26696  0.11014  1.0000
  O   O38       1.0  0.12754  0.26696  0.61016  1.0000
  O   O39       1.0  0.12752  0.76696  0.11017  1.0000
  O   O40       1.0  0.12752  0.76694  0.61016  1.0000
  O   O41       1.0  0.13198  0.30178  0.36309  1.0000
  O   O42       1.0  0.13197  0.30176  0.86308  1.0000
  O   O43       1.0  0.13197  0.80177  0.36309  1.0000
  O   O44       1.0  0.13195  0.80175  0.86307  1.0000
  O   O45       1.0  0.86902  0.23600  0.36309  1.0000
  O   O46       1.0  0.86900  0.23600  0.86309  1.0000
  O   O47       1.0  0.86902  0.73599  0.36309  1.0000
  O   O48       1.0  0.86903  0.73600  0.86309  1.0000
  O   O49       1.0  0.00050  0.08761  0.46200  1.0000
  O   O50       1.0  0.00047  0.08758  0.96198  1.0000
  O   O51       1.0  0.00050  0.58761  0.46198  1.0000
  O   O52       1.0  0.00049  0.58762  0.96199  1.0000
  O   O53       1.0  0.00050  0.41173  0.20777  1.0000
  O   O54       1.0  0.00049  0.41174  0.70775  1.0000
  O   O55       1.0  0.00048  0.91173  0.20775  1.0000
  O   O56       1.0  0.00050  0.91173  0.70776  1.0000
  O   O57       1.0  0.31353  0.23979  0.47578  1.0000
  O   O58       1.0  0.31349  0.23976  0.97578  1.0000
  O   O59       1.0  0.31352  0.73978  0.47578  1.0000
  O   O60       1.0  0.31350  0.73978  0.97579  1.0000
  O   O61       1.0  0.68746  0.08325  0.47580  1.0000
  O   O62       1.0  0.68748  0.08323  0.97579  1.0000
  O   O63       1.0  0.68747  0.58325  0.47580  1.0000
  O   O64       1.0  0.68747  0.58323  0.97578  1.0000
  O   O65       1.0  0.68766  0.26037  0.21701  1.0000
  O   O66       1.0  0.68767  0.26038  0.71701  1.0000
  O   O67       1.0  0.68766  0.76035  0.21699  1.0000
  O   O68       1.0  0.68766  0.76033  0.71703  1.0000
  O   O69       1.0  0.31332  0.41678  0.21695  1.0000
  O   O70       1.0  0.31332  0.41680  0.71696  1.0000
  O   O71       1.0  0.31332  0.91676  0.21694  1.0000
  O   O72       1.0  0.31332  0.91677  0.71693  1.0000
