data_image0
_chemical_formula_structural       Li32Mg16Ge16O64
_chemical_formula_sum              "Li32 Mg16 Ge16 O64"
_cell_length_a       9.95341
_cell_length_b       10.9305
_cell_length_c       12.6172
_cell_angle_alpha    90.0012
_cell_angle_beta     90.0004
_cell_angle_gamma    89.9949

_space_group_name_H-M_alt    "P 1"
_space_group_IT_number       1

loop_
  _space_group_symop_operation_xyz
  'x, y, z'

loop_
  _atom_site_type_symbol
  _atom_site_label
  _atom_site_symmetry_multiplicity
  _atom_site_fract_x
  _atom_site_fract_y
  _atom_site_fract_z
  _atom_site_occupancy
  Li  Li1       1.0  0.25036  0.41689  0.12593  1.0000
  Li  Li2       1.0  0.25035  0.41691  0.62594  1.0000
  Li  Li3       1.0  0.25043  0.91685  0.12596  1.0000
  Li  Li4       1.0  0.25032  0.91692  0.62596  1.0000
  Li  Li5       1.0  0.75035  0.41692  0.12591  1.0000
  Li  Li6       1.0  0.75035  0.41689  0.62593  1.0000
  Li  Li7       1.0  0.75043  0.91689  0.12591  1.0000
  Li  Li8       1.0  0.75032  0.91690  0.62593  1.0000
  Li  Li9       1.0  0.00038  0.08399  0.12489  1.0000
  Li  Li10      1.0  0.00035  0.08401  0.62493  1.0000
  Li  Li11      1.0  0.00037  0.58400  0.12490  1.0000
  Li  Li12      1.0  0.00031  0.58402  0.62491  1.0000
  Li  Li13      1.0  0.50039  0.08399  0.12493  1.0000
  Li  Li14      1.0  0.50035  0.08402  0.62491  1.0000
  Li  Li15      1.0  0.50040  0.58402  0.12489  1.0000
  Li  Li16      1.0  0.50037  0.58403  0.62486  1.0000
  Li  Li17      1.0  0.00037  0.08398  0.37592  1.0000
  Li  Li18      1.0  0.00039  0.08397  0.87597  1.0000
  Li  Li19      1.0  0.00035  0.58396  0.37596  1.0000
  Li  Li20      1.0  0.00042  0.58399  0.87595  1.0000
  Li  Li21      1.0  0.50035  0.08401  0.37596  1.0000
  Li  Li22      1.0  0.50037  0.08397  0.87597  1.0000
  Li  Li23      1.0  0.50030  0.58400  0.37595  1.0000
  Li  Li24      1.0  0.50038  0.58397  0.87587  1.0000
  Li  Li25      1.0  0.25038  0.41685  0.37490  1.0000
  Li  Li26      1.0  0.25038  0.41686  0.87490  1.0000
  Li  Li27      1.0  0.25034  0.91688  0.37491  1.0000
  Li  Li28      1.0  0.25038  0.91686  0.87496  1.0000
  Li  Li29      1.0  0.75030  0.41687  0.37492  1.0000
  Li  Li30      1.0  0.75040  0.41687  0.87487  1.0000
  Li  Li31      1.0  0.75032  0.91690  0.37491  1.0000
  Li  Li32      1.0  0.75046  0.91687  0.87491  1.0000
  Mg  Mg1       1.0  0.25022  0.16590  0.00049  1.0000
  Mg  Mg2       1.0  0.25011  0.16592  0.50049  1.0000
  Mg  Mg3       1.0  0.25028  0.66586  0.00047  1.0000
  Mg  Mg4       1.0  0.25010  0.66594  0.50047  1.0000
  Mg  Mg5       1.0  0.75017  0.16592  0.00046  1.0000
  Mg  Mg6       1.0  0.75022  0.16591  0.50047  1.0000
  Mg  Mg7       1.0  0.75018  0.66591  0.00043  1.0000
  Mg  Mg8       1.0  0.75016  0.66595  0.50043  1.0000
  Mg  Mg9       1.0  0.00013  0.33498  0.25043  1.0000
  Mg  Mg10      1.0  0.00017  0.33495  0.75044  1.0000
  Mg  Mg11      1.0  0.00013  0.83493  0.25048  1.0000
  Mg  Mg12      1.0  0.00016  0.83498  0.75044  1.0000
  Mg  Mg13      1.0  0.50013  0.33499  0.25043  1.0000
  Mg  Mg14      1.0  0.50016  0.33496  0.75042  1.0000
  Mg  Mg15      1.0  0.50018  0.83496  0.25044  1.0000
  Mg  Mg16      1.0  0.50014  0.83501  0.75043  1.0000
  Ge  Ge1       1.0  0.00397  0.33712  0.00047  1.0000
  Ge  Ge2       1.0  0.00395  0.33712  0.50046  1.0000
  Ge  Ge3       1.0  0.00403  0.83711  0.00050  1.0000
  Ge  Ge4       1.0  0.00395  0.83716  0.50049  1.0000
  Ge  Ge5       1.0  0.50397  0.33713  0.00045  1.0000
  Ge  Ge6       1.0  0.50396  0.33711  0.50046  1.0000
  Ge  Ge7       1.0  0.50404  0.83714  0.00045  1.0000
  Ge  Ge8       1.0  0.50393  0.83715  0.50047  1.0000
  Ge  Ge9       1.0  0.25394  0.16366  0.25049  1.0000
  Ge  Ge10      1.0  0.25395  0.16368  0.75050  1.0000
  Ge  Ge11      1.0  0.25394  0.66367  0.25050  1.0000
  Ge  Ge12      1.0  0.25394  0.66370  0.75047  1.0000
  Ge  Ge13      1.0  0.75392  0.16370  0.25047  1.0000
  Ge  Ge14      1.0  0.75395  0.16366  0.75048  1.0000
  Ge  Ge15      1.0  0.75394  0.66369  0.25047  1.0000
  Ge  Ge16      1.0  0.75394  0.66369  0.75047  1.0000
  O   O1        1.0  0.44763  0.18321  0.00044  1.0000
  O   O2        1.0  0.44752  0.18323  0.50044  1.0000
  O   O3        1.0  0.44768  0.68320  0.00040  1.0000
  O   O4        1.0  0.44751  0.68327  0.50041  1.0000
  O   O5        1.0  0.94758  0.18322  0.00044  1.0000
  O   O6        1.0  0.94763  0.18322  0.50045  1.0000
  O   O7        1.0  0.94757  0.68321  0.00042  1.0000
  O   O8        1.0  0.94757  0.68325  0.50045  1.0000
  O   O9        1.0  0.19756  0.31760  0.25041  1.0000
  O   O10       1.0  0.19759  0.31762  0.75044  1.0000
  O   O11       1.0  0.19754  0.81760  0.25047  1.0000
  O   O12       1.0  0.19756  0.81764  0.75044  1.0000
  O   O13       1.0  0.69755  0.31763  0.25041  1.0000
  O   O14       1.0  0.69758  0.31760  0.75043  1.0000
  O   O15       1.0  0.69761  0.81764  0.25044  1.0000
  O   O16       1.0  0.69756  0.81763  0.75042  1.0000
  O   O17       1.0  0.44803  0.41242  0.11617  1.0000
  O   O18       1.0  0.44803  0.41242  0.61619  1.0000
  O   O19       1.0  0.44807  0.91237  0.11620  1.0000
  O   O20       1.0  0.44800  0.91245  0.61620  1.0000
  O   O21       1.0  0.94804  0.41242  0.11619  1.0000
  O   O22       1.0  0.94802  0.41240  0.61621  1.0000
  O   O23       1.0  0.94809  0.91238  0.11622  1.0000
  O   O24       1.0  0.94799  0.91243  0.61623  1.0000
  O   O25       1.0  0.19804  0.08845  0.13471  1.0000
  O   O26       1.0  0.19798  0.08848  0.63473  1.0000
  O   O27       1.0  0.19804  0.58847  0.13469  1.0000
  O   O28       1.0  0.19797  0.58849  0.63471  1.0000
  O   O29       1.0  0.69804  0.08847  0.13469  1.0000
  O   O30       1.0  0.69801  0.08848  0.63469  1.0000
  O   O31       1.0  0.69804  0.58850  0.13467  1.0000
  O   O32       1.0  0.69804  0.58850  0.63467  1.0000
  O   O33       1.0  0.19801  0.08846  0.36624  1.0000
  O   O34       1.0  0.19804  0.08845  0.86626  1.0000
  O   O35       1.0  0.19800  0.58843  0.36621  1.0000
  O   O36       1.0  0.19808  0.58845  0.86623  1.0000
  O   O37       1.0  0.69804  0.08849  0.36622  1.0000
  O   O38       1.0  0.69803  0.08842  0.86624  1.0000
  O   O39       1.0  0.69797  0.58848  0.36622  1.0000
  O   O40       1.0  0.69802  0.58845  0.86618  1.0000
  O   O41       1.0  0.44803  0.41238  0.38471  1.0000
  O   O42       1.0  0.44804  0.41237  0.88468  1.0000
  O   O43       1.0  0.44803  0.91241  0.38469  1.0000
  O   O44       1.0  0.44802  0.91238  0.88471  1.0000
  O   O45       1.0  0.94798  0.41238  0.38472  1.0000
  O   O46       1.0  0.94806  0.41239  0.88469  1.0000
  O   O47       1.0  0.94800  0.91240  0.38471  1.0000
  O   O48       1.0  0.94811  0.91235  0.88474  1.0000
  O   O49       1.0  0.18156  0.33455  0.00044  1.0000
  O   O50       1.0  0.18151  0.33459  0.50044  1.0000
  O   O51       1.0  0.18160  0.83449  0.00048  1.0000
  O   O52       1.0  0.18151  0.83461  0.50046  1.0000
  O   O53       1.0  0.68154  0.33459  0.00041  1.0000
  O   O54       1.0  0.68153  0.33455  0.50044  1.0000
  O   O55       1.0  0.68159  0.83459  0.00041  1.0000
  O   O56       1.0  0.68149  0.83459  0.50042  1.0000
  O   O57       1.0  0.43153  0.16630  0.25045  1.0000
  O   O58       1.0  0.43151  0.16630  0.75046  1.0000
  O   O59       1.0  0.43151  0.66630  0.25043  1.0000
  O   O60       1.0  0.43150  0.66634  0.75037  1.0000
  O   O61       1.0  0.93150  0.16632  0.25044  1.0000
  O   O62       1.0  0.93150  0.16628  0.75045  1.0000
  O   O63       1.0  0.93151  0.66626  0.25045  1.0000
  O   O64       1.0  0.93151  0.66631  0.75044  1.0000
