data_image0
_chemical_formula_structural       Ta36O90
_chemical_formula_sum              "Ta36 O90"
_cell_length_a       11.5241
_cell_length_b       11.6078
_cell_length_c       13.0369
_cell_angle_alpha    89.9996
_cell_angle_beta     90.0003
_cell_angle_gamma    89.9996

_space_group_name_H-M_alt    "P 1"
_space_group_IT_number       1

loop_
  _space_group_symop_operation_xyz
  'x, y, z'

loop_
  _atom_site_type_symbol
  _atom_site_label
  _atom_site_symmetry_multiplicity
  _atom_site_fract_x
  _atom_site_fract_y
  _atom_site_fract_z
  _atom_site_occupancy
  Ta  Ta1       1.0  0.00659  0.32715  0.14616  1.0000
  Ta  Ta2       1.0  0.00662  0.66048  0.14614  1.0000
  Ta  Ta3       1.0  0.00660  0.99380  0.14615  1.0000
  Ta  Ta4       1.0  0.33992  0.32709  0.14616  1.0000
  Ta  Ta5       1.0  0.33994  0.66042  0.14618  1.0000
  Ta  Ta6       1.0  0.33994  0.99375  0.14615  1.0000
  Ta  Ta7       1.0  0.67327  0.32713  0.14617  1.0000
  Ta  Ta8       1.0  0.67331  0.66047  0.14617  1.0000
  Ta  Ta9       1.0  0.67327  0.99380  0.14617  1.0000
  Ta  Ta10      1.0  0.17330  0.00706  0.35456  1.0000
  Ta  Ta11      1.0  0.17326  0.34038  0.35457  1.0000
  Ta  Ta12      1.0  0.17323  0.67371  0.35458  1.0000
  Ta  Ta13      1.0  0.50664  0.00705  0.35460  1.0000
  Ta  Ta14      1.0  0.50657  0.34036  0.35456  1.0000
  Ta  Ta15      1.0  0.50653  0.67371  0.35458  1.0000
  Ta  Ta16      1.0  0.83999  0.00705  0.35459  1.0000
  Ta  Ta17      1.0  0.83992  0.34040  0.35458  1.0000
  Ta  Ta18      1.0  0.83989  0.67372  0.35459  1.0000
  Ta  Ta19      1.0  0.17328  0.00707  0.64617  1.0000
  Ta  Ta20      1.0  0.17325  0.34040  0.64616  1.0000
  Ta  Ta21      1.0  0.17332  0.67374  0.64617  1.0000
  Ta  Ta22      1.0  0.50659  0.00707  0.64619  1.0000
  Ta  Ta23      1.0  0.50658  0.34039  0.64617  1.0000
  Ta  Ta24      1.0  0.50661  0.67371  0.64616  1.0000
  Ta  Ta25      1.0  0.83996  0.00706  0.64619  1.0000
  Ta  Ta26      1.0  0.83993  0.34038  0.64617  1.0000
  Ta  Ta27      1.0  0.83999  0.67373  0.64619  1.0000
  Ta  Ta28      1.0  0.00657  0.32716  0.85459  1.0000
  Ta  Ta29      1.0  0.00666  0.66048  0.85456  1.0000
  Ta  Ta30      1.0  0.00666  0.99382  0.85459  1.0000
  Ta  Ta31      1.0  0.33989  0.32711  0.85456  1.0000
  Ta  Ta32      1.0  0.33998  0.66045  0.85460  1.0000
  Ta  Ta33      1.0  0.33998  0.99379  0.85459  1.0000
  Ta  Ta34      1.0  0.67325  0.32720  0.85459  1.0000
  Ta  Ta35      1.0  0.67330  0.66053  0.85457  1.0000
  Ta  Ta36      1.0  0.67334  0.99386  0.85459  1.0000
  O   O1        1.0  0.17325  0.33291  0.18563  1.0000
  O   O2        1.0  0.17328  0.66617  0.18572  1.0000
  O   O3        1.0  0.17327  0.99949  0.18563  1.0000
  O   O4        1.0  0.50659  0.33282  0.18565  1.0000
  O   O5        1.0  0.50659  0.66610  0.18569  1.0000
  O   O6        1.0  0.50660  0.99944  0.18563  1.0000
  O   O7        1.0  0.83992  0.33280  0.18564  1.0000
  O   O8        1.0  0.83997  0.66610  0.18562  1.0000
  O   O9        1.0  0.83994  0.99949  0.18568  1.0000
  O   O10       1.0  0.00666  0.00142  0.31510  1.0000
  O   O11       1.0  0.00661  0.33466  0.31509  1.0000
  O   O12       1.0  0.00658  0.66800  0.31511  1.0000
  O   O13       1.0  0.33997  0.00133  0.31508  1.0000
  O   O14       1.0  0.33994  0.33460  0.31511  1.0000
  O   O15       1.0  0.33992  0.66794  0.31512  1.0000
  O   O16       1.0  0.67330  0.00133  0.31514  1.0000
  O   O17       1.0  0.67326  0.33476  0.31513  1.0000
  O   O18       1.0  0.67325  0.66806  0.31507  1.0000
  O   O19       1.0  0.00661  0.00136  0.68569  1.0000
  O   O20       1.0  0.00663  0.33464  0.68564  1.0000
  O   O21       1.0  0.00665  0.66804  0.68560  1.0000
  O   O22       1.0  0.33993  0.00136  0.68566  1.0000
  O   O23       1.0  0.33991  0.33475  0.68569  1.0000
  O   O24       1.0  0.33995  0.66808  0.68567  1.0000
  O   O25       1.0  0.67330  0.00140  0.68564  1.0000
  O   O26       1.0  0.67325  0.33470  0.68563  1.0000
  O   O27       1.0  0.67328  0.66807  0.68565  1.0000
  O   O28       1.0  0.17325  0.33285  0.81514  1.0000
  O   O29       1.0  0.17331  0.66615  0.81510  1.0000
  O   O30       1.0  0.17330  0.99953  0.81515  1.0000
  O   O31       1.0  0.50661  0.33288  0.81511  1.0000
  O   O32       1.0  0.50663  0.66617  0.81511  1.0000
  O   O33       1.0  0.50666  0.99942  0.81509  1.0000
  O   O34       1.0  0.83994  0.33279  0.81503  1.0000
  O   O35       1.0  0.83998  0.66612  0.81508  1.0000
  O   O36       1.0  0.83999  0.99955  0.81514  1.0000
  O   O37       1.0  0.00668  0.16460  0.85141  1.0000
  O   O38       1.0  0.00660  0.49790  0.85127  1.0000
  O   O39       1.0  0.00660  0.83125  0.85131  1.0000
  O   O40       1.0  0.34006  0.16455  0.85129  1.0000
  O   O41       1.0  0.33995  0.49790  0.85136  1.0000
  O   O42       1.0  0.33990  0.83123  0.85128  1.0000
  O   O43       1.0  0.67325  0.16460  0.85135  1.0000
  O   O44       1.0  0.67331  0.49793  0.85143  1.0000
  O   O45       1.0  0.67338  0.83128  0.85138  1.0000
  O   O46       1.0  0.17335  0.16961  0.64952  1.0000
  O   O47       1.0  0.17330  0.50296  0.64948  1.0000
  O   O48       1.0  0.17322  0.83630  0.64951  1.0000
  O   O49       1.0  0.50658  0.16964  0.64952  1.0000
  O   O50       1.0  0.50666  0.50295  0.64947  1.0000
  O   O51       1.0  0.50662  0.83630  0.64940  1.0000
  O   O52       1.0  0.83996  0.16962  0.64942  1.0000
  O   O53       1.0  0.83995  0.50292  0.64953  1.0000
  O   O54       1.0  0.83989  0.83627  0.64950  1.0000
  O   O55       1.0  0.17336  0.16965  0.35138  1.0000
  O   O56       1.0  0.17328  0.50297  0.35136  1.0000
  O   O57       1.0  0.17334  0.83632  0.35135  1.0000
  O   O58       1.0  0.50666  0.16957  0.35132  1.0000
  O   O59       1.0  0.50660  0.50288  0.35137  1.0000
  O   O60       1.0  0.50659  0.83624  0.35134  1.0000
  O   O61       1.0  0.83994  0.16962  0.35138  1.0000
  O   O62       1.0  0.83994  0.50300  0.35134  1.0000
  O   O63       1.0  0.84007  0.83630  0.35124  1.0000
  O   O64       1.0  0.17333  0.00239  0.50039  1.0000
  O   O65       1.0  0.17328  0.33576  0.50037  1.0000
  O   O66       1.0  0.17333  0.66909  0.50039  1.0000
  O   O67       1.0  0.50664  0.00238  0.50038  1.0000
  O   O68       1.0  0.50646  0.33560  0.50039  1.0000
  O   O69       1.0  0.50658  0.66893  0.50037  1.0000
  O   O70       1.0  0.84012  0.00225  0.50040  1.0000
  O   O71       1.0  0.83995  0.33571  0.50036  1.0000
  O   O72       1.0  0.83991  0.66902  0.50040  1.0000
  O   O73       1.0  0.00647  0.33191  0.00040  1.0000
  O   O74       1.0  0.00673  0.66508  0.00034  1.0000
  O   O75       1.0  0.00662  0.99841  0.00038  1.0000
  O   O76       1.0  0.33987  0.33178  0.00038  1.0000
  O   O77       1.0  0.34000  0.66518  0.00039  1.0000
  O   O78       1.0  0.34003  0.99851  0.00036  1.0000
  O   O79       1.0  0.67332  0.33181  0.00038  1.0000
  O   O80       1.0  0.67319  0.66528  0.00037  1.0000
  O   O81       1.0  0.67334  0.99856  0.00040  1.0000
  O   O82       1.0  0.00660  0.16455  0.14938  1.0000
  O   O83       1.0  0.00656  0.49791  0.14951  1.0000
  O   O84       1.0  0.00662  0.83122  0.14941  1.0000
  O   O85       1.0  0.33991  0.16456  0.14946  1.0000
  O   O86       1.0  0.33995  0.49790  0.14948  1.0000
  O   O87       1.0  0.33995  0.83122  0.14948  1.0000
  O   O88       1.0  0.67325  0.16454  0.14955  1.0000
  O   O89       1.0  0.67327  0.49789  0.14942  1.0000
  O   O90       1.0  0.67334  0.83122  0.14949  1.0000
