data_image0
_chemical_formula_structural       Ba18Zr6Ta24O90
_chemical_formula_sum              "Ba18 Zr6 Ta24 O90"
_cell_length_a       12.7437
_cell_length_b       12.7435
_cell_length_c       12.0161
_cell_angle_alpha    89.9996
_cell_angle_beta     89.9986
_cell_angle_gamma    89.999

_space_group_name_H-M_alt    "P 1"
_space_group_IT_number       1

loop_
  _space_group_symop_operation_xyz
  'x, y, z'

loop_
  _atom_site_type_symbol
  _atom_site_label
  _atom_site_symmetry_multiplicity
  _atom_site_fract_x
  _atom_site_fract_y
  _atom_site_fract_z
  _atom_site_occupancy
  Ba  Ba1       1.0  0.33017  0.83019  0.12629  1.0000
  Ba  Ba2       1.0  0.33020  0.83021  0.45964  1.0000
  Ba  Ba3       1.0  0.33019  0.83023  0.79297  1.0000
  Ba  Ba4       1.0  0.67040  0.17037  0.12630  1.0000
  Ba  Ba5       1.0  0.67039  0.17047  0.45963  1.0000
  Ba  Ba6       1.0  0.67039  0.17050  0.79295  1.0000
  Ba  Ba7       1.0  0.83012  0.67034  0.12629  1.0000
  Ba  Ba8       1.0  0.83031  0.67053  0.45963  1.0000
  Ba  Ba9       1.0  0.83026  0.67042  0.79299  1.0000
  Ba  Ba10      1.0  0.17043  0.33024  0.12629  1.0000
  Ba  Ba11      1.0  0.17040  0.33022  0.45961  1.0000
  Ba  Ba12      1.0  0.17042  0.33019  0.79297  1.0000
  Ba  Ba13      1.0  0.50036  0.50035  0.12662  1.0000
  Ba  Ba14      1.0  0.50037  0.50036  0.45997  1.0000
  Ba  Ba15      1.0  0.50034  0.50037  0.79329  1.0000
  Ba  Ba16      1.0  0.00039  0.00039  0.12662  1.0000
  Ba  Ba17      1.0  0.00037  0.00039  0.45992  1.0000
  Ba  Ba18      1.0  0.00036  0.00035  0.79329  1.0000
  Zr  Zr1       1.0  0.50033  0.00037  0.29267  1.0000
  Zr  Zr2       1.0  0.50037  0.00034  0.62605  1.0000
  Zr  Zr3       1.0  0.50036  0.00036  0.95937  1.0000
  Zr  Zr4       1.0  0.00036  0.50038  0.29268  1.0000
  Zr  Zr5       1.0  0.00039  0.50035  0.62601  1.0000
  Zr  Zr6       1.0  0.00036  0.50039  0.95934  1.0000
  Ta  Ta1       1.0  0.42562  0.28674  0.29355  1.0000
  Ta  Ta2       1.0  0.42562  0.28672  0.62686  1.0000
  Ta  Ta3       1.0  0.42561  0.28672  0.96020  1.0000
  Ta  Ta4       1.0  0.57508  0.71399  0.29351  1.0000
  Ta  Ta5       1.0  0.57509  0.71398  0.62686  1.0000
  Ta  Ta6       1.0  0.57509  0.71400  0.96018  1.0000
  Ta  Ta7       1.0  0.92561  0.21401  0.29353  1.0000
  Ta  Ta8       1.0  0.92560  0.21399  0.62689  1.0000
  Ta  Ta9       1.0  0.92559  0.21399  0.96021  1.0000
  Ta  Ta10      1.0  0.07510  0.78671  0.29349  1.0000
  Ta  Ta11      1.0  0.07506  0.78672  0.62686  1.0000
  Ta  Ta12      1.0  0.07508  0.78674  0.96019  1.0000
  Ta  Ta13      1.0  0.71398  0.42561  0.29355  1.0000
  Ta  Ta14      1.0  0.71400  0.42563  0.62688  1.0000
  Ta  Ta15      1.0  0.71396  0.42559  0.96020  1.0000
  Ta  Ta16      1.0  0.28673  0.57508  0.29353  1.0000
  Ta  Ta17      1.0  0.28674  0.57508  0.62688  1.0000
  Ta  Ta18      1.0  0.28673  0.57509  0.96020  1.0000
  Ta  Ta19      1.0  0.78671  0.92563  0.29349  1.0000
  Ta  Ta20      1.0  0.78672  0.92567  0.62686  1.0000
  Ta  Ta21      1.0  0.78670  0.92561  0.96018  1.0000
  Ta  Ta22      1.0  0.21401  0.07513  0.29351  1.0000
  Ta  Ta23      1.0  0.21399  0.07508  0.62686  1.0000
  Ta  Ta24      1.0  0.21400  0.07512  0.96019  1.0000
  O   O1        1.0  0.21658  0.71660  0.29287  1.0000
  O   O2        1.0  0.21657  0.71656  0.62618  1.0000
  O   O3        1.0  0.21657  0.71659  0.95953  1.0000
  O   O4        1.0  0.78411  0.28413  0.29282  1.0000
  O   O5        1.0  0.78414  0.28415  0.62614  1.0000
  O   O6        1.0  0.78412  0.28411  0.95950  1.0000
  O   O7        1.0  0.71660  0.78413  0.29285  1.0000
  O   O8        1.0  0.71659  0.78416  0.62621  1.0000
  O   O9        1.0  0.71658  0.78413  0.95957  1.0000
  O   O10       1.0  0.28414  0.21659  0.29287  1.0000
  O   O11       1.0  0.28414  0.21660  0.62616  1.0000
  O   O12       1.0  0.28413  0.21659  0.95952  1.0000
  O   O13       1.0  0.41855  0.29573  0.12615  1.0000
  O   O14       1.0  0.41859  0.29570  0.45952  1.0000
  O   O15       1.0  0.41857  0.29574  0.79284  1.0000
  O   O16       1.0  0.58218  0.70501  0.12616  1.0000
  O   O17       1.0  0.58217  0.70503  0.45952  1.0000
  O   O18       1.0  0.58212  0.70504  0.79286  1.0000
  O   O19       1.0  0.91863  0.20503  0.12614  1.0000
  O   O20       1.0  0.91860  0.20503  0.45951  1.0000
  O   O21       1.0  0.91857  0.20501  0.79284  1.0000
  O   O22       1.0  0.08221  0.79576  0.12614  1.0000
  O   O23       1.0  0.08213  0.79570  0.45950  1.0000
  O   O24       1.0  0.08211  0.79571  0.79286  1.0000
  O   O25       1.0  0.70501  0.41864  0.12615  1.0000
  O   O26       1.0  0.70502  0.41856  0.45951  1.0000
  O   O27       1.0  0.70501  0.41861  0.79283  1.0000
  O   O28       1.0  0.29569  0.58216  0.12615  1.0000
  O   O29       1.0  0.29572  0.58218  0.45951  1.0000
  O   O30       1.0  0.29575  0.58216  0.79283  1.0000
  O   O31       1.0  0.79567  0.91862  0.12617  1.0000
  O   O32       1.0  0.79574  0.91856  0.45954  1.0000
  O   O33       1.0  0.79578  0.91856  0.79289  1.0000
  O   O34       1.0  0.20501  0.08218  0.12615  1.0000
  O   O35       1.0  0.20503  0.08215  0.45949  1.0000
  O   O36       1.0  0.20505  0.08212  0.79285  1.0000
  O   O37       1.0  0.16455  0.49018  0.29277  1.0000
  O   O38       1.0  0.16456  0.49017  0.62612  1.0000
  O   O39       1.0  0.16457  0.49019  0.95942  1.0000
  O   O40       1.0  0.83617  0.51050  0.29283  1.0000
  O   O41       1.0  0.83618  0.51053  0.62603  1.0000
  O   O42       1.0  0.83615  0.51053  0.95947  1.0000
  O   O43       1.0  0.66458  0.01056  0.29283  1.0000
  O   O44       1.0  0.66456  0.01054  0.62612  1.0000
  O   O45       1.0  0.66460  0.01056  0.95938  1.0000
  O   O46       1.0  0.33620  0.99023  0.29273  1.0000
  O   O47       1.0  0.33618  0.99018  0.62612  1.0000
  O   O48       1.0  0.33617  0.99022  0.95952  1.0000
  O   O49       1.0  0.51048  0.16458  0.29276  1.0000
  O   O50       1.0  0.51053  0.16457  0.62613  1.0000
  O   O51       1.0  0.51051  0.16458  0.95943  1.0000
  O   O52       1.0  0.49018  0.83619  0.29277  1.0000
  O   O53       1.0  0.49017  0.83617  0.62606  1.0000
  O   O54       1.0  0.49017  0.83618  0.95948  1.0000
  O   O55       1.0  0.99018  0.66456  0.29268  1.0000
  O   O56       1.0  0.99016  0.66456  0.62609  1.0000
  O   O57       1.0  0.99017  0.66459  0.95953  1.0000
  O   O58       1.0  0.01051  0.33619  0.29280  1.0000
  O   O59       1.0  0.01051  0.33618  0.62612  1.0000
  O   O60       1.0  0.01053  0.33619  0.95942  1.0000
  O   O61       1.0  0.50066  0.00054  0.12604  1.0000
  O   O62       1.0  0.50053  0.00053  0.45938  1.0000
  O   O63       1.0  0.50041  0.00041  0.79277  1.0000
  O   O64       1.0  0.00037  0.50032  0.12607  1.0000
  O   O65       1.0  0.00043  0.50044  0.45939  1.0000
  O   O66       1.0  0.00028  0.50047  0.79273  1.0000
  O   O67       1.0  0.36164  0.43407  0.29292  1.0000
  O   O68       1.0  0.36166  0.43406  0.62631  1.0000
  O   O69       1.0  0.36161  0.43407  0.95960  1.0000
  O   O70       1.0  0.63912  0.56673  0.29288  1.0000
  O   O71       1.0  0.63908  0.56671  0.62623  1.0000
  O   O72       1.0  0.63910  0.56671  0.95963  1.0000
  O   O73       1.0  0.86165  0.06671  0.29293  1.0000
  O   O74       1.0  0.86165  0.06671  0.62625  1.0000
  O   O75       1.0  0.86162  0.06670  0.95957  1.0000
  O   O76       1.0  0.13916  0.93405  0.29296  1.0000
  O   O77       1.0  0.13913  0.93402  0.62626  1.0000
  O   O78       1.0  0.13917  0.93402  0.95954  1.0000
  O   O79       1.0  0.56667  0.36162  0.29290  1.0000
  O   O80       1.0  0.56670  0.36161  0.62630  1.0000
  O   O81       1.0  0.56672  0.36161  0.95961  1.0000
  O   O82       1.0  0.43403  0.63910  0.29292  1.0000
  O   O83       1.0  0.43403  0.63909  0.62626  1.0000
  O   O84       1.0  0.43405  0.63913  0.95962  1.0000
  O   O85       1.0  0.93406  0.86164  0.29292  1.0000
  O   O86       1.0  0.93404  0.86165  0.62626  1.0000
  O   O87       1.0  0.93405  0.86166  0.95961  1.0000
  O   O88       1.0  0.06671  0.13910  0.29291  1.0000
  O   O89       1.0  0.06672  0.13913  0.62624  1.0000
  O   O90       1.0  0.06670  0.13914  0.95956  1.0000
