data_image0
_chemical_formula_structural       Mg16Ta16Sn8O64
_chemical_formula_sum              "Mg16 Ta16 Sn8 O64"
_cell_length_a       11.9139
_cell_length_b       10.7977
_cell_length_c       10.5135
_cell_angle_alpha    88.127
_cell_angle_beta     89.9976
_cell_angle_gamma    106.015

_space_group_name_H-M_alt    "P 1"
_space_group_IT_number       1

loop_
  _space_group_symop_operation_xyz
  'x, y, z'

loop_
  _atom_site_type_symbol
  _atom_site_label
  _atom_site_symmetry_multiplicity
  _atom_site_fract_x
  _atom_site_fract_y
  _atom_site_fract_z
  _atom_site_occupancy
  Mg  Mg1       1.0  0.43616  0.46150  0.37863  1.0000
  Mg  Mg2       1.0  0.43618  0.46149  0.87863  1.0000
  Mg  Mg3       1.0  0.93614  0.46152  0.37862  1.0000
  Mg  Mg4       1.0  0.93619  0.46156  0.87859  1.0000
  Mg  Mg5       1.0  0.20565  0.53941  0.37224  1.0000
  Mg  Mg6       1.0  0.20568  0.53944  0.87225  1.0000
  Mg  Mg7       1.0  0.70565  0.53935  0.37226  1.0000
  Mg  Mg8       1.0  0.70562  0.53931  0.87225  1.0000
  Mg  Mg9       1.0  0.06481  0.53943  0.12220  1.0000
  Mg  Mg10      1.0  0.06481  0.53937  0.62223  1.0000
  Mg  Mg11      1.0  0.56480  0.53934  0.12226  1.0000
  Mg  Mg12      1.0  0.56484  0.53937  0.62224  1.0000
  Mg  Mg13      1.0  0.29533  0.46151  0.12861  1.0000
  Mg  Mg14      1.0  0.29533  0.46151  0.62858  1.0000
  Mg  Mg15      1.0  0.79533  0.46152  0.12860  1.0000
  Mg  Mg16      1.0  0.79533  0.46149  0.62864  1.0000
  Ta  Ta1       1.0  0.02219  0.74579  0.36541  1.0000
  Ta  Ta2       1.0  0.02209  0.74581  0.86542  1.0000
  Ta  Ta3       1.0  0.52207  0.74573  0.36545  1.0000
  Ta  Ta4       1.0  0.52219  0.74576  0.86544  1.0000
  Ta  Ta5       1.0  0.14946  0.25518  0.38543  1.0000
  Ta  Ta6       1.0  0.14939  0.25522  0.88539  1.0000
  Ta  Ta7       1.0  0.64938  0.25512  0.38545  1.0000
  Ta  Ta8       1.0  0.64950  0.25510  0.88550  1.0000
  Ta  Ta9       1.0  0.47884  0.25508  0.13543  1.0000
  Ta  Ta10      1.0  0.47886  0.25515  0.63550  1.0000
  Ta  Ta11      1.0  0.97884  0.25518  0.13546  1.0000
  Ta  Ta12      1.0  0.97884  0.25510  0.63540  1.0000
  Ta  Ta13      1.0  0.35155  0.74574  0.11538  1.0000
  Ta  Ta14      1.0  0.35161  0.74576  0.61548  1.0000
  Ta  Ta15      1.0  0.85155  0.74575  0.11546  1.0000
  Ta  Ta16      1.0  0.85153  0.74572  0.61537  1.0000
  Sn  Sn1       1.0  0.34559  0.00011  0.37543  1.0000
  Sn  Sn2       1.0  0.34551  0.00024  0.87540  1.0000
  Sn  Sn3       1.0  0.84553  0.00034  0.37540  1.0000
  Sn  Sn4       1.0  0.84568  0.00035  0.87548  1.0000
  Sn  Sn5       1.0  0.15547  0.00098  0.12543  1.0000
  Sn  Sn6       1.0  0.15532  0.00049  0.62535  1.0000
  Sn  Sn7       1.0  0.65524  0.00020  0.12537  1.0000
  Sn  Sn8       1.0  0.65545  0.00071  0.62547  1.0000
  O   O1        1.0  0.00027  0.82992  0.01902  1.0000
  O   O2        1.0  0.00043  0.82984  0.51914  1.0000
  O   O3        1.0  0.50051  0.82983  0.01922  1.0000
  O   O4        1.0  0.50034  0.82989  0.51908  1.0000
  O   O5        1.0  0.08582  0.17113  0.23159  1.0000
  O   O6        1.0  0.08564  0.17102  0.73171  1.0000
  O   O7        1.0  0.58549  0.17093  0.23183  1.0000
  O   O8        1.0  0.58572  0.17105  0.73173  1.0000
  O   O9        1.0  0.50065  0.17099  0.48186  1.0000
  O   O10       1.0  0.50063  0.17097  0.98180  1.0000
  O   O11       1.0  0.00057  0.17105  0.48168  1.0000
  O   O12       1.0  0.00060  0.17109  0.98172  1.0000
  O   O13       1.0  0.41528  0.82987  0.26918  1.0000
  O   O14       1.0  0.41531  0.82989  0.76920  1.0000
  O   O15       1.0  0.91531  0.82987  0.26916  1.0000
  O   O16       1.0  0.91534  0.82988  0.76909  1.0000
  O   O17       1.0  0.15863  0.86225  0.30905  1.0000
  O   O18       1.0  0.15854  0.86227  0.80890  1.0000
  O   O19       1.0  0.65847  0.86224  0.30886  1.0000
  O   O20       1.0  0.65860  0.86225  0.80901  1.0000
  O   O21       1.0  0.22756  0.13872  0.44198  1.0000
  O   O22       1.0  0.22753  0.13875  0.94207  1.0000
  O   O23       1.0  0.72763  0.13872  0.44203  1.0000
  O   O24       1.0  0.72767  0.13864  0.94192  1.0000
  O   O25       1.0  0.34232  0.13862  0.19182  1.0000
  O   O26       1.0  0.34242  0.13871  0.69199  1.0000
  O   O27       1.0  0.84251  0.13868  0.19201  1.0000
  O   O28       1.0  0.84244  0.13860  0.69191  1.0000
  O   O29       1.0  0.27346  0.86220  0.05879  1.0000
  O   O30       1.0  0.27344  0.86225  0.55890  1.0000
  O   O31       1.0  0.77331  0.86222  0.05899  1.0000
  O   O32       1.0  0.77336  0.86214  0.55884  1.0000
  O   O33       1.0  0.46006  0.61698  0.22421  1.0000
  O   O34       1.0  0.46011  0.61705  0.72415  1.0000
  O   O35       1.0  0.96008  0.61702  0.22414  1.0000
  O   O36       1.0  0.96007  0.61695  0.72422  1.0000
  O   O37       1.0  0.15181  0.38404  0.02659  1.0000
  O   O38       1.0  0.15178  0.38395  0.52667  1.0000
  O   O39       1.0  0.65178  0.38389  0.02670  1.0000
  O   O40       1.0  0.65180  0.38399  0.52663  1.0000
  O   O41       1.0  0.22474  0.60698  0.18998  1.0000
  O   O42       1.0  0.22476  0.60700  0.68998  1.0000
  O   O43       1.0  0.72474  0.60697  0.19001  1.0000
  O   O44       1.0  0.72476  0.60696  0.69001  1.0000
  O   O45       1.0  0.42147  0.39389  0.06086  1.0000
  O   O46       1.0  0.42149  0.39394  0.56085  1.0000
  O   O47       1.0  0.92148  0.39395  0.06083  1.0000
  O   O48       1.0  0.92146  0.39390  0.56086  1.0000
  O   O49       1.0  0.27624  0.39397  0.31086  1.0000
  O   O50       1.0  0.27625  0.39395  0.81083  1.0000
  O   O51       1.0  0.77622  0.39390  0.31083  1.0000
  O   O52       1.0  0.77624  0.39389  0.81090  1.0000
  O   O53       1.0  0.07949  0.60696  0.43999  1.0000
  O   O54       1.0  0.07953  0.60705  0.93997  1.0000
  O   O55       1.0  0.57953  0.60700  0.43999  1.0000
  O   O56       1.0  0.57951  0.60694  0.94001  1.0000
  O   O57       1.0  0.34921  0.61697  0.47421  1.0000
  O   O58       1.0  0.34924  0.61699  0.97416  1.0000
  O   O59       1.0  0.84921  0.61692  0.47417  1.0000
  O   O60       1.0  0.84917  0.61693  0.97422  1.0000
  O   O61       1.0  0.04090  0.38394  0.27665  1.0000
  O   O62       1.0  0.04092  0.38391  0.77665  1.0000
  O   O63       1.0  0.54088  0.38391  0.27665  1.0000
  O   O64       1.0  0.54095  0.38397  0.77667  1.0000
