data_image0
_chemical_formula_structural       K16Na32Ga16O48
_chemical_formula_sum              "K16 Na32 Ga16 O48"
_cell_length_a       12.2644
_cell_length_b       12.9536
_cell_length_c       10.1206
_cell_angle_alpha    89.9992
_cell_angle_beta     90.0099
_cell_angle_gamma    90.0168

_space_group_name_H-M_alt    "P 1"
_space_group_IT_number       1

loop_
  _space_group_symop_operation_xyz
  'x, y, z'

loop_
  _atom_site_type_symbol
  _atom_site_label
  _atom_site_symmetry_multiplicity
  _atom_site_fract_x
  _atom_site_fract_y
  _atom_site_fract_z
  _atom_site_occupancy
  K   K1        1.0  0.37506  0.32992  0.96406  1.0000
  K   K2        1.0  0.37513  0.83000  0.96434  1.0000
  K   K3        1.0  0.87490  0.32984  0.96427  1.0000
  K   K4        1.0  0.87509  0.82991  0.96426  1.0000
  K   K5        1.0  0.12516  0.42082  0.46416  1.0000
  K   K6        1.0  0.12522  0.92090  0.46435  1.0000
  K   K7        1.0  0.62518  0.42084  0.46421  1.0000
  K   K8        1.0  0.62523  0.92086  0.46421  1.0000
  K   K9        1.0  0.12520  0.17076  0.03701  1.0000
  K   K10       1.0  0.12520  0.67074  0.03672  1.0000
  K   K11       1.0  0.62538  0.17069  0.03702  1.0000
  K   K12       1.0  0.62518  0.67071  0.03692  1.0000
  K   K13       1.0  0.37502  0.08007  0.53675  1.0000
  K   K14       1.0  0.37516  0.58010  0.53698  1.0000
  K   K15       1.0  0.87496  0.07999  0.53690  1.0000
  K   K16       1.0  0.87517  0.58003  0.53706  1.0000
  Na  Na1       1.0  0.00529  0.49506  0.76944  1.0000
  Na  Na2       1.0  0.00550  0.99552  0.76948  1.0000
  Na  Na3       1.0  0.50556  0.49562  0.76950  1.0000
  Na  Na4       1.0  0.50558  0.99570  0.76952  1.0000
  Na  Na5       1.0  0.49530  0.25616  0.26946  1.0000
  Na  Na6       1.0  0.49521  0.75619  0.26955  1.0000
  Na  Na7       1.0  0.99521  0.25627  0.26951  1.0000
  Na  Na8       1.0  0.99527  0.75617  0.26953  1.0000
  Na  Na9       1.0  0.00564  0.24498  0.73139  1.0000
  Na  Na10      1.0  0.00591  0.74491  0.73156  1.0000
  Na  Na11      1.0  0.50575  0.24512  0.73140  1.0000
  Na  Na12      1.0  0.50582  0.74518  0.73150  1.0000
  Na  Na13      1.0  0.24526  0.49374  0.76949  1.0000
  Na  Na14      1.0  0.24535  0.99371  0.76960  1.0000
  Na  Na15      1.0  0.74526  0.49367  0.76951  1.0000
  Na  Na16      1.0  0.74539  0.99375  0.76958  1.0000
  Na  Na17      1.0  0.49528  0.00615  0.23133  1.0000
  Na  Na18      1.0  0.49531  0.50614  0.23132  1.0000
  Na  Na19      1.0  0.99531  0.00615  0.23131  1.0000
  Na  Na20      1.0  0.99533  0.50613  0.23129  1.0000
  Na  Na21      1.0  0.25525  0.00606  0.23141  1.0000
  Na  Na22      1.0  0.25526  0.50609  0.23135  1.0000
  Na  Na23      1.0  0.75533  0.00600  0.23146  1.0000
  Na  Na24      1.0  0.75537  0.50605  0.23139  1.0000
  Na  Na25      1.0  0.25517  0.25617  0.26937  1.0000
  Na  Na26      1.0  0.25510  0.75609  0.26947  1.0000
  Na  Na27      1.0  0.75517  0.25610  0.26937  1.0000
  Na  Na28      1.0  0.75514  0.75607  0.26941  1.0000
  Na  Na29      1.0  0.24548  0.24388  0.73125  1.0000
  Na  Na30      1.0  0.24560  0.74391  0.73132  1.0000
  Na  Na31      1.0  0.74550  0.24379  0.73121  1.0000
  Na  Na32      1.0  0.74560  0.74381  0.73131  1.0000
  Ga  Ga1       1.0  0.12521  0.41571  0.01110  1.0000
  Ga  Ga2       1.0  0.12531  0.91577  0.01113  1.0000
  Ga  Ga3       1.0  0.62526  0.41572  0.01115  1.0000
  Ga  Ga4       1.0  0.62530  0.91572  0.01118  1.0000
  Ga  Ga5       1.0  0.12525  0.16584  0.48983  1.0000
  Ga  Ga6       1.0  0.12535  0.66577  0.48984  1.0000
  Ga  Ga7       1.0  0.62526  0.16583  0.48979  1.0000
  Ga  Ga8       1.0  0.62536  0.66581  0.48979  1.0000
  Ga  Ga9       1.0  0.37533  0.33521  0.51113  1.0000
  Ga  Ga10      1.0  0.37539  0.83517  0.51117  1.0000
  Ga  Ga11      1.0  0.87532  0.33509  0.51107  1.0000
  Ga  Ga12      1.0  0.87544  0.83511  0.51117  1.0000
  Ga  Ga13      1.0  0.37531  0.08515  0.98984  1.0000
  Ga  Ga14      1.0  0.37523  0.58510  0.98984  1.0000
  Ga  Ga15      1.0  0.87531  0.08507  0.98985  1.0000
  Ga  Ga16      1.0  0.87522  0.58509  0.98979  1.0000
  O   O1        1.0  0.12529  0.36067  0.17772  1.0000
  O   O2        1.0  0.12529  0.86060  0.17770  1.0000
  O   O3        1.0  0.62542  0.36065  0.17776  1.0000
  O   O4        1.0  0.62527  0.86057  0.17774  1.0000
  O   O5        1.0  0.00015  0.25022  0.50044  1.0000
  O   O6        1.0  0.00040  0.75031  0.50055  1.0000
  O   O7        1.0  0.50019  0.25028  0.50050  1.0000
  O   O8        1.0  0.50030  0.75037  0.50064  1.0000
  O   O9        1.0  0.25019  0.25072  0.50035  1.0000
  O   O10       1.0  0.25034  0.75053  0.50047  1.0000
  O   O11       1.0  0.75019  0.25067  0.50023  1.0000
  O   O12       1.0  0.75038  0.75059  0.50035  1.0000
  O   O13       1.0  0.12591  0.08562  0.63929  1.0000
  O   O14       1.0  0.12582  0.58545  0.63919  1.0000
  O   O15       1.0  0.62611  0.08562  0.63917  1.0000
  O   O16       1.0  0.62608  0.58560  0.63913  1.0000
  O   O17       1.0  0.37544  0.41565  0.36198  1.0000
  O   O18       1.0  0.37542  0.91555  0.36198  1.0000
  O   O19       1.0  0.87557  0.41551  0.36192  1.0000
  O   O20       1.0  0.87552  0.91552  0.36199  1.0000
  O   O21       1.0  0.12603  0.33521  0.86203  1.0000
  O   O22       1.0  0.12628  0.83533  0.86198  1.0000
  O   O23       1.0  0.62618  0.33517  0.86217  1.0000
  O   O24       1.0  0.62627  0.83524  0.86210  1.0000
  O   O25       1.0  0.37544  0.16538  0.13915  1.0000
  O   O26       1.0  0.37530  0.66527  0.13920  1.0000
  O   O27       1.0  0.87543  0.16534  0.13915  1.0000
  O   O28       1.0  0.87535  0.66534  0.13911  1.0000
  O   O29       1.0  0.37586  0.39027  0.67773  1.0000
  O   O30       1.0  0.37586  0.89034  0.67769  1.0000
  O   O31       1.0  0.87564  0.39002  0.67774  1.0000
  O   O32       1.0  0.87587  0.89016  0.67776  1.0000
  O   O33       1.0  0.25028  0.00054  0.00064  1.0000
  O   O34       1.0  0.25018  0.50051  0.00044  1.0000
  O   O35       1.0  0.75033  0.00044  0.00071  1.0000
  O   O36       1.0  0.75015  0.50058  0.00043  1.0000
  O   O37       1.0  0.00027  0.00028  0.00039  1.0000
  O   O38       1.0  0.00011  0.50016  0.00041  1.0000
  O   O39       1.0  0.50028  0.00026  0.00042  1.0000
  O   O40       1.0  0.50014  0.50015  0.00042  1.0000
  O   O41       1.0  0.37582  0.14027  0.82336  1.0000
  O   O42       1.0  0.37586  0.64032  0.82343  1.0000
  O   O43       1.0  0.87572  0.14014  0.82332  1.0000
  O   O44       1.0  0.87586  0.64020  0.82329  1.0000
  O   O45       1.0  0.12542  0.11054  0.32335  1.0000
  O   O46       1.0  0.12542  0.61057  0.32334  1.0000
  O   O47       1.0  0.62534  0.11051  0.32336  1.0000
  O   O48       1.0  0.62541  0.61054  0.32338  1.0000
