data_image0
_chemical_formula_structural       Ba48Na24O24
_chemical_formula_sum              "Ba48 Na24 O24"
_cell_length_a       20.0093
_cell_length_b       15.3557
_cell_length_c       14.1945
_cell_angle_alpha    90.0009
_cell_angle_beta     89.9978
_cell_angle_gamma    90.0025

_space_group_name_H-M_alt    "P 1"
_space_group_IT_number       1

loop_
  _space_group_symop_operation_xyz
  'x, y, z'

loop_
  _atom_site_type_symbol
  _atom_site_label
  _atom_site_symmetry_multiplicity
  _atom_site_fract_x
  _atom_site_fract_y
  _atom_site_fract_z
  _atom_site_occupancy
  Ba  Ba1       1.0  0.16691  0.58699  0.40514  1.0000
  Ba  Ba2       1.0  0.16693  0.58717  0.90518  1.0000
  Ba  Ba3       1.0  0.33361  0.08718  0.40526  1.0000
  Ba  Ba4       1.0  0.33357  0.08722  0.90514  1.0000
  Ba  Ba5       1.0  0.50024  0.58712  0.40539  1.0000
  Ba  Ba6       1.0  0.50025  0.58706  0.90551  1.0000
  Ba  Ba7       1.0  0.66686  0.08709  0.40525  1.0000
  Ba  Ba8       1.0  0.66693  0.08712  0.90525  1.0000
  Ba  Ba9       1.0  0.83358  0.58709  0.40524  1.0000
  Ba  Ba10      1.0  0.83349  0.58708  0.90524  1.0000
  Ba  Ba11      1.0  0.00033  0.08711  0.40509  1.0000
  Ba  Ba12      1.0  0.00024  0.08723  0.90510  1.0000
  Ba  Ba13      1.0  0.16674  0.41361  0.09532  1.0000
  Ba  Ba14      1.0  0.16687  0.41359  0.59553  1.0000
  Ba  Ba15      1.0  0.33353  0.91392  0.09555  1.0000
  Ba  Ba16      1.0  0.33363  0.91377  0.59558  1.0000
  Ba  Ba17      1.0  0.50020  0.41359  0.09575  1.0000
  Ba  Ba18      1.0  0.50023  0.41374  0.59565  1.0000
  Ba  Ba19      1.0  0.66688  0.91363  0.09547  1.0000
  Ba  Ba20      1.0  0.66693  0.91369  0.59566  1.0000
  Ba  Ba21      1.0  0.83358  0.41369  0.09555  1.0000
  Ba  Ba22      1.0  0.83359  0.41362  0.59554  1.0000
  Ba  Ba23      1.0  0.00026  0.91372  0.09537  1.0000
  Ba  Ba24      1.0  0.00017  0.91380  0.59561  1.0000
  Ba  Ba25      1.0  0.16680  0.08726  0.09538  1.0000
  Ba  Ba26      1.0  0.16691  0.08717  0.59546  1.0000
  Ba  Ba27      1.0  0.33350  0.58699  0.09562  1.0000
  Ba  Ba28      1.0  0.33354  0.58705  0.59559  1.0000
  Ba  Ba29      1.0  0.50019  0.08723  0.09548  1.0000
  Ba  Ba30      1.0  0.50024  0.08717  0.59564  1.0000
  Ba  Ba31      1.0  0.66688  0.58710  0.09565  1.0000
  Ba  Ba32      1.0  0.66697  0.58711  0.59560  1.0000
  Ba  Ba33      1.0  0.83362  0.08713  0.09554  1.0000
  Ba  Ba34      1.0  0.83358  0.08717  0.59542  1.0000
  Ba  Ba35      1.0  0.00021  0.58706  0.09553  1.0000
  Ba  Ba36      1.0  0.00029  0.58717  0.59548  1.0000
  Ba  Ba37      1.0  0.16695  0.91367  0.40530  1.0000
  Ba  Ba38      1.0  0.16687  0.91377  0.90504  1.0000
  Ba  Ba39      1.0  0.33355  0.41364  0.40525  1.0000
  Ba  Ba40      1.0  0.33357  0.41371  0.90521  1.0000
  Ba  Ba41      1.0  0.50030  0.91378  0.40529  1.0000
  Ba  Ba42      1.0  0.50016  0.91371  0.90518  1.0000
  Ba  Ba43      1.0  0.66688  0.41367  0.40525  1.0000
  Ba  Ba44      1.0  0.66688  0.41360  0.90538  1.0000
  Ba  Ba45      1.0  0.83359  0.91365  0.40526  1.0000
  Ba  Ba46      1.0  0.83355  0.91365  0.90517  1.0000
  Ba  Ba47      1.0  0.00022  0.41358  0.40529  1.0000
  Ba  Ba48      1.0  0.00020  0.41373  0.90508  1.0000
  Na  Na1       1.0  0.16712  0.75010  0.15908  1.0000
  Na  Na2       1.0  0.16710  0.75002  0.65904  1.0000
  Na  Na3       1.0  0.33324  0.25000  0.15907  1.0000
  Na  Na4       1.0  0.33374  0.25004  0.65929  1.0000
  Na  Na5       1.0  0.50004  0.75052  0.15942  1.0000
  Na  Na6       1.0  0.50049  0.75014  0.65936  1.0000
  Na  Na7       1.0  0.66716  0.25011  0.15913  1.0000
  Na  Na8       1.0  0.66718  0.25012  0.65912  1.0000
  Na  Na9       1.0  0.83384  0.74986  0.15950  1.0000
  Na  Na10      1.0  0.83391  0.74990  0.65956  1.0000
  Na  Na11      1.0  0.00009  0.25083  0.15929  1.0000
  Na  Na12      1.0  0.00030  0.25023  0.65938  1.0000
  Na  Na13      1.0  0.16708  0.24999  0.34113  1.0000
  Na  Na14      1.0  0.16711  0.25012  0.84110  1.0000
  Na  Na15      1.0  0.33350  0.74999  0.34107  1.0000
  Na  Na16      1.0  0.33379  0.75002  0.84104  1.0000
  Na  Na17      1.0  0.50040  0.25040  0.34110  1.0000
  Na  Na18      1.0  0.50049  0.25031  0.84106  1.0000
  Na  Na19      1.0  0.66717  0.75013  0.34108  1.0000
  Na  Na20      1.0  0.66707  0.75010  0.84114  1.0000
  Na  Na21      1.0  0.83321  0.25005  0.34110  1.0000
  Na  Na22      1.0  0.83352  0.25002  0.84099  1.0000
  Na  Na23      1.0  0.00052  0.75037  0.34101  1.0000
  Na  Na24      1.0  0.00053  0.75020  0.84097  1.0000
  O   O1        1.0  0.08354  0.00050  0.00019  1.0000
  O   O2        1.0  0.08356  0.00046  0.50027  1.0000
  O   O3        1.0  0.25017  0.50045  0.00030  1.0000
  O   O4        1.0  0.25021  0.50030  0.50031  1.0000
  O   O5        1.0  0.41689  0.00051  0.00028  1.0000
  O   O6        1.0  0.41690  0.00054  0.50043  1.0000
  O   O7        1.0  0.58352  0.50026  0.00062  1.0000
  O   O8        1.0  0.58355  0.50044  0.50055  1.0000
  O   O9        1.0  0.75024  0.00033  0.00043  1.0000
  O   O10       1.0  0.75020  0.00041  0.50042  1.0000
  O   O11       1.0  0.91685  0.50035  0.00034  1.0000
  O   O12       1.0  0.91692  0.50036  0.50037  1.0000
  O   O13       1.0  0.25018  0.00050  0.00029  1.0000
  O   O14       1.0  0.25027  0.00042  0.50044  1.0000
  O   O15       1.0  0.41685  0.50029  0.00057  1.0000
  O   O16       1.0  0.41688  0.50040  0.50051  1.0000
  O   O17       1.0  0.58351  0.00044  0.00034  1.0000
  O   O18       1.0  0.58357  0.00039  0.50050  1.0000
  O   O19       1.0  0.75018  0.50039  0.00047  1.0000
  O   O20       1.0  0.75025  0.50029  0.50034  1.0000
  O   O21       1.0  0.91691  0.00046  0.00032  1.0000
  O   O22       1.0  0.91690  0.00033  0.50036  1.0000
  O   O23       1.0  0.08351  0.50040  0.00032  1.0000
  O   O24       1.0  0.08358  0.50034  0.50043  1.0000
