data_image0
_chemical_formula_structural       K8Ca16Si32O84
_chemical_formula_sum              "K8 Ca16 Si32 O84"
_cell_length_a       13.6293
_cell_length_b       13.5862
_cell_length_c       11.4942
_cell_angle_alpha    98.9407
_cell_angle_beta     70.4968
_cell_angle_gamma    81.0041

_space_group_name_H-M_alt    "P 1"
_space_group_IT_number       1

loop_
  _space_group_symop_operation_xyz
  'x, y, z'

loop_
  _atom_site_type_symbol
  _atom_site_label
  _atom_site_symmetry_multiplicity
  _atom_site_fract_x
  _atom_site_fract_y
  _atom_site_fract_z
  _atom_site_occupancy
  K   K1        1.0  0.97757  0.35564  0.43101  1.0000
  K   K2        1.0  0.47759  0.35561  0.43108  1.0000
  K   K3        1.0  0.22765  0.85559  0.43105  1.0000
  K   K4        1.0  0.72759  0.85558  0.43094  1.0000
  K   K5        1.0  0.77275  0.14529  0.56994  1.0000
  K   K6        1.0  0.27272  0.14535  0.57000  1.0000
  K   K7        1.0  0.02266  0.64530  0.57003  1.0000
  K   K8        1.0  0.52265  0.64532  0.57000  1.0000
  Ca  Ca1       1.0  0.72659  0.39219  0.81727  1.0000
  Ca  Ca2       1.0  0.22659  0.39226  0.81733  1.0000
  Ca  Ca3       1.0  0.97658  0.89214  0.81725  1.0000
  Ca  Ca4       1.0  0.47657  0.89220  0.81719  1.0000
  Ca  Ca5       1.0  0.02372  0.10877  0.18379  1.0000
  Ca  Ca6       1.0  0.52374  0.10874  0.18372  1.0000
  Ca  Ca7       1.0  0.27380  0.60871  0.18371  1.0000
  Ca  Ca8       1.0  0.77372  0.60872  0.18361  1.0000
  Ca  Ca9       1.0  0.98139  0.36694  0.03968  1.0000
  Ca  Ca10      1.0  0.48139  0.36695  0.03964  1.0000
  Ca  Ca11      1.0  0.23136  0.86703  0.03968  1.0000
  Ca  Ca12      1.0  0.73139  0.86692  0.03963  1.0000
  Ca  Ca13      1.0  0.76894  0.13391  0.96124  1.0000
  Ca  Ca14      1.0  0.26894  0.13398  0.96129  1.0000
  Ca  Ca15      1.0  0.01893  0.63400  0.96136  1.0000
  Ca  Ca16      1.0  0.51894  0.63397  0.96127  1.0000
  Si  Si1       1.0  0.54583  0.12111  0.88795  1.0000
  Si  Si2       1.0  0.04581  0.12109  0.88797  1.0000
  Si  Si3       1.0  0.79581  0.62117  0.88789  1.0000
  Si  Si4       1.0  0.29584  0.62114  0.88800  1.0000
  Si  Si5       1.0  0.20451  0.37973  0.11299  1.0000
  Si  Si6       1.0  0.70451  0.37975  0.11300  1.0000
  Si  Si7       1.0  0.45450  0.87978  0.11298  1.0000
  Si  Si8       1.0  0.95449  0.87977  0.11305  1.0000
  Si  Si9       1.0  0.48926  0.45204  0.74545  1.0000
  Si  Si10      1.0  0.98925  0.45206  0.74545  1.0000
  Si  Si11      1.0  0.73926  0.95203  0.74540  1.0000
  Si  Si12      1.0  0.23925  0.95205  0.74545  1.0000
  Si  Si13      1.0  0.26111  0.04888  0.25554  1.0000
  Si  Si14      1.0  0.76107  0.04883  0.25551  1.0000
  Si  Si15      1.0  0.51108  0.54882  0.25555  1.0000
  Si  Si16      1.0  0.01111  0.54887  0.25543  1.0000
  Si  Si17      1.0  0.04624  0.10096  0.47201  1.0000
  Si  Si18      1.0  0.54617  0.10098  0.47194  1.0000
  Si  Si19      1.0  0.29623  0.60097  0.47202  1.0000
  Si  Si20      1.0  0.79620  0.60093  0.47183  1.0000
  Si  Si21      1.0  0.70415  0.39995  0.52898  1.0000
  Si  Si22      1.0  0.20414  0.40000  0.52906  1.0000
  Si  Si23      1.0  0.95417  0.89997  0.52900  1.0000
  Si  Si24      1.0  0.45413  0.89997  0.52895  1.0000
  Si  Si25      1.0  0.94574  0.23631  0.74379  1.0000
  Si  Si26      1.0  0.44573  0.23629  0.74373  1.0000
  Si  Si27      1.0  0.19578  0.73632  0.74378  1.0000
  Si  Si28      1.0  0.69573  0.73630  0.74362  1.0000
  Si  Si29      1.0  0.80460  0.26455  0.25721  1.0000
  Si  Si30      1.0  0.30464  0.26462  0.25725  1.0000
  Si  Si31      1.0  0.05467  0.76459  0.25720  1.0000
  Si  Si32      1.0  0.55459  0.76458  0.25717  1.0000
  O   O1        1.0  0.00024  0.00044  0.50048  1.0000
  O   O2        1.0  0.50007  0.00051  0.50042  1.0000
  O   O3        1.0  0.25018  0.50049  0.50060  1.0000
  O   O4        1.0  0.75023  0.50040  0.50036  1.0000
  O   O5        1.0  0.03400  0.17339  0.60644  1.0000
  O   O6        1.0  0.53399  0.17340  0.60636  1.0000
  O   O7        1.0  0.28404  0.67346  0.60640  1.0000
  O   O8        1.0  0.78398  0.67342  0.60623  1.0000
  O   O9        1.0  0.71636  0.32744  0.39461  1.0000
  O   O10       1.0  0.21640  0.32754  0.39464  1.0000
  O   O11       1.0  0.96643  0.82747  0.39459  1.0000
  O   O12       1.0  0.46635  0.82749  0.39454  1.0000
  O   O13       1.0  0.54087  0.45623  0.85176  1.0000
  O   O14       1.0  0.04083  0.45629  0.85180  1.0000
  O   O15       1.0  0.79085  0.95619  0.85173  1.0000
  O   O16       1.0  0.29086  0.95623  0.85178  1.0000
  O   O17       1.0  0.20947  0.04473  0.14924  1.0000
  O   O18       1.0  0.70949  0.04465  0.14916  1.0000
  O   O19       1.0  0.45946  0.54459  0.14924  1.0000
  O   O20       1.0  0.95950  0.54472  0.14912  1.0000
  O   O21       1.0  0.95017  0.06249  0.91475  1.0000
  O   O22       1.0  0.45018  0.06252  0.91480  1.0000
  O   O23       1.0  0.20017  0.56258  0.91492  1.0000
  O   O24       1.0  0.70017  0.56257  0.91482  1.0000
  O   O25       1.0  0.80018  0.43833  0.08616  1.0000
  O   O26       1.0  0.30012  0.43837  0.08612  1.0000
  O   O27       1.0  0.05011  0.93840  0.08627  1.0000
  O   O28       1.0  0.55014  0.93837  0.08620  1.0000
  O   O29       1.0  0.16244  0.34562  0.00246  1.0000
  O   O30       1.0  0.66239  0.34576  0.00248  1.0000
  O   O31       1.0  0.41242  0.84577  0.00243  1.0000
  O   O32       1.0  0.91241  0.84574  0.00251  1.0000
  O   O33       1.0  0.58796  0.15510  0.99845  1.0000
  O   O34       1.0  0.08794  0.15504  0.99849  1.0000
  O   O35       1.0  0.83794  0.65524  0.99839  1.0000
  O   O36       1.0  0.33799  0.65514  0.99848  1.0000
  O   O37       1.0  0.65069  0.05441  0.76278  1.0000
  O   O38       1.0  0.15069  0.05444  0.76278  1.0000
  O   O39       1.0  0.90066  0.55442  0.76276  1.0000
  O   O40       1.0  0.40066  0.55439  0.76284  1.0000
  O   O41       1.0  0.09961  0.44646  0.23808  1.0000
  O   O42       1.0  0.59968  0.44646  0.23819  1.0000
  O   O43       1.0  0.34964  0.94648  0.23813  1.0000
  O   O44       1.0  0.84960  0.94644  0.23820  1.0000
  O   O45       1.0  0.50540  0.22897  0.84694  1.0000
  O   O46       1.0  0.00538  0.22900  0.84703  1.0000
  O   O47       1.0  0.75543  0.72900  0.84680  1.0000
  O   O48       1.0  0.25544  0.72899  0.84698  1.0000
  O   O49       1.0  0.24493  0.27191  0.15408  1.0000
  O   O50       1.0  0.74491  0.27188  0.15402  1.0000
  O   O51       1.0  0.49486  0.77190  0.15401  1.0000
  O   O52       1.0  0.99494  0.77191  0.15406  1.0000
  O   O53       1.0  0.92564  0.35895  0.74136  1.0000
  O   O54       1.0  0.42564  0.35894  0.74133  1.0000
  O   O55       1.0  0.17559  0.85897  0.74141  1.0000
  O   O56       1.0  0.67561  0.85895  0.74122  1.0000
  O   O57       1.0  0.82473  0.14191  0.25962  1.0000
  O   O58       1.0  0.32476  0.14197  0.25967  1.0000
  O   O59       1.0  0.07480  0.64193  0.25954  1.0000
  O   O60       1.0  0.57471  0.64192  0.25960  1.0000
  O   O61       1.0  0.75878  0.34267  0.60846  1.0000
  O   O62       1.0  0.25873  0.34268  0.60855  1.0000
  O   O63       1.0  0.00876  0.84267  0.60850  1.0000
  O   O64       1.0  0.50883  0.84267  0.60837  1.0000
  O   O65       1.0  0.99159  0.15830  0.39260  1.0000
  O   O66       1.0  0.49156  0.15833  0.39251  1.0000
  O   O67       1.0  0.24163  0.65826  0.39253  1.0000
  O   O68       1.0  0.74151  0.65820  0.39240  1.0000
  O   O69       1.0  0.91743  0.29404  0.21802  1.0000
  O   O70       1.0  0.41747  0.29409  0.21801  1.0000
  O   O71       1.0  0.16750  0.79407  0.21798  1.0000
  O   O72       1.0  0.66743  0.79403  0.21792  1.0000
  O   O73       1.0  0.83291  0.20684  0.78296  1.0000
  O   O74       1.0  0.33293  0.20678  0.78288  1.0000
  O   O75       1.0  0.08297  0.70682  0.78296  1.0000
  O   O76       1.0  0.58290  0.70682  0.78285  1.0000
  O   O77       1.0  0.57380  0.43988  0.60100  1.0000
  O   O78       1.0  0.07378  0.43987  0.60101  1.0000
  O   O79       1.0  0.82380  0.93986  0.60094  1.0000
  O   O80       1.0  0.32377  0.93982  0.60097  1.0000
  O   O81       1.0  0.17658  0.06107  0.40001  1.0000
  O   O82       1.0  0.67652  0.06105  0.39996  1.0000
  O   O83       1.0  0.42658  0.56103  0.40004  1.0000
  O   O84       1.0  0.92656  0.56107  0.39987  1.0000
