data_image0
_chemical_formula_structural       Ca16Ta16Al16O80
_chemical_formula_sum              "Ca16 Ta16 Al16 O80"
_cell_length_a       11.1993
_cell_length_b       10.7172
_cell_length_c       14.7421
_cell_angle_alpha    72.4993
_cell_angle_beta     104.309
_cell_angle_gamma    86.5397

_space_group_name_H-M_alt    "P 1"
_space_group_IT_number       1

loop_
  _space_group_symop_operation_xyz
  'x, y, z'

loop_
  _atom_site_type_symbol
  _atom_site_label
  _atom_site_symmetry_multiplicity
  _atom_site_fract_x
  _atom_site_fract_y
  _atom_site_fract_z
  _atom_site_occupancy
  Ca  Ca1       1.0  0.99969  0.33415  0.20829  1.0000
  Ca  Ca2       1.0  0.99981  0.33407  0.70863  1.0000
  Ca  Ca3       1.0  0.49981  0.33406  0.20825  1.0000
  Ca  Ca4       1.0  0.49981  0.33401  0.70848  1.0000
  Ca  Ca5       1.0  0.24970  0.83404  0.45865  1.0000
  Ca  Ca6       1.0  0.24978  0.83404  0.95870  1.0000
  Ca  Ca7       1.0  0.74971  0.83412  0.45838  1.0000
  Ca  Ca8       1.0  0.74975  0.83398  0.95877  1.0000
  Ca  Ca9       1.0  0.25120  0.16642  0.04213  1.0000
  Ca  Ca10      1.0  0.25138  0.16635  0.54211  1.0000
  Ca  Ca11      1.0  0.75142  0.16646  0.04238  1.0000
  Ca  Ca12      1.0  0.75132  0.16654  0.54221  1.0000
  Ca  Ca13      1.0  0.50126  0.66643  0.29229  1.0000
  Ca  Ca14      1.0  0.50136  0.66646  0.79221  1.0000
  Ca  Ca15      1.0  0.00125  0.66655  0.29237  1.0000
  Ca  Ca16      1.0  0.00136  0.66654  0.79226  1.0000
  Ta  Ta1       1.0  0.00052  0.00020  0.00036  1.0000
  Ta  Ta2       1.0  0.00059  0.00029  0.50037  1.0000
  Ta  Ta3       1.0  0.50062  0.00039  0.00038  1.0000
  Ta  Ta4       1.0  0.50055  0.00029  0.50035  1.0000
  Ta  Ta5       1.0  0.25047  0.50031  0.25035  1.0000
  Ta  Ta6       1.0  0.25059  0.50030  0.75033  1.0000
  Ta  Ta7       1.0  0.75062  0.50024  0.25044  1.0000
  Ta  Ta8       1.0  0.75058  0.50028  0.75036  1.0000
  Ta  Ta9       1.0  0.00064  0.00026  0.25037  1.0000
  Ta  Ta10      1.0  0.00052  0.00033  0.75034  1.0000
  Ta  Ta11      1.0  0.50055  0.00028  0.25037  1.0000
  Ta  Ta12      1.0  0.50058  0.00018  0.75044  1.0000
  Ta  Ta13      1.0  0.25047  0.50027  0.50036  1.0000
  Ta  Ta14      1.0  0.25052  0.50027  0.00035  1.0000
  Ta  Ta15      1.0  0.75045  0.50024  0.50039  1.0000
  Ta  Ta16      1.0  0.75043  0.50033  0.00034  1.0000
  Al  Al1       1.0  0.26297  0.15873  0.29619  1.0000
  Al  Al2       1.0  0.26304  0.15868  0.79619  1.0000
  Al  Al3       1.0  0.76310  0.15857  0.29615  1.0000
  Al  Al4       1.0  0.76298  0.15852  0.79620  1.0000
  Al  Al5       1.0  0.51289  0.65865  0.54622  1.0000
  Al  Al6       1.0  0.51294  0.65871  0.04621  1.0000
  Al  Al7       1.0  0.01283  0.65860  0.54618  1.0000
  Al  Al8       1.0  0.01292  0.65864  0.04613  1.0000
  Al  Al9       1.0  0.98808  0.34193  0.95459  1.0000
  Al  Al10      1.0  0.98815  0.34187  0.45461  1.0000
  Al  Al11      1.0  0.48814  0.34187  0.95455  1.0000
  Al  Al12      1.0  0.48803  0.34192  0.45453  1.0000
  Al  Al13      1.0  0.23808  0.84188  0.20455  1.0000
  Al  Al14      1.0  0.23813  0.84188  0.70469  1.0000
  Al  Al15      1.0  0.73816  0.84193  0.20467  1.0000
  Al  Al16      1.0  0.73809  0.84196  0.70452  1.0000
  O   O1        1.0  0.80605  0.46319  0.14390  1.0000
  O   O2        1.0  0.80621  0.46311  0.64393  1.0000
  O   O3        1.0  0.30615  0.46310  0.14392  1.0000
  O   O4        1.0  0.30631  0.46327  0.64392  1.0000
  O   O5        1.0  0.05632  0.96334  0.39391  1.0000
  O   O6        1.0  0.05620  0.96317  0.89394  1.0000
  O   O7        1.0  0.55616  0.96309  0.39393  1.0000
  O   O8        1.0  0.55621  0.96313  0.89400  1.0000
  O   O9        1.0  0.44493  0.03769  0.10674  1.0000
  O   O10       1.0  0.44504  0.03736  0.60686  1.0000
  O   O11       1.0  0.94491  0.03719  0.10685  1.0000
  O   O12       1.0  0.94498  0.03751  0.60678  1.0000
  O   O13       1.0  0.69486  0.53730  0.35684  1.0000
  O   O14       1.0  0.69492  0.53724  0.85686  1.0000
  O   O15       1.0  0.19487  0.53748  0.35678  1.0000
  O   O16       1.0  0.19497  0.53741  0.85679  1.0000
  O   O17       1.0  0.87764  0.34691  0.02083  1.0000
  O   O18       1.0  0.87756  0.34681  0.52073  1.0000
  O   O19       1.0  0.37754  0.34672  0.02068  1.0000
  O   O20       1.0  0.37740  0.34678  0.52061  1.0000
  O   O21       1.0  0.12759  0.84674  0.27078  1.0000
  O   O22       1.0  0.12752  0.84675  0.77078  1.0000
  O   O23       1.0  0.62752  0.84673  0.27078  1.0000
  O   O24       1.0  0.62752  0.84671  0.77069  1.0000
  O   O25       1.0  0.92920  0.45008  0.83190  1.0000
  O   O26       1.0  0.92922  0.45019  0.33196  1.0000
  O   O27       1.0  0.42920  0.45009  0.83191  1.0000
  O   O28       1.0  0.42907  0.45019  0.33191  1.0000
  O   O29       1.0  0.17915  0.95008  0.08190  1.0000
  O   O30       1.0  0.17918  0.95003  0.58199  1.0000
  O   O31       1.0  0.67921  0.95013  0.08198  1.0000
  O   O32       1.0  0.67925  0.95008  0.58184  1.0000
  O   O33       1.0  0.37363  0.15378  0.23016  1.0000
  O   O34       1.0  0.37355  0.15374  0.73002  1.0000
  O   O35       1.0  0.87346  0.15375  0.22983  1.0000
  O   O36       1.0  0.87354  0.15376  0.72999  1.0000
  O   O37       1.0  0.62341  0.65372  0.48006  1.0000
  O   O38       1.0  0.62335  0.65374  0.97995  1.0000
  O   O39       1.0  0.12334  0.65371  0.47996  1.0000
  O   O40       1.0  0.12345  0.65368  0.97996  1.0000
  O   O41       1.0  0.32183  0.05060  0.41893  1.0000
  O   O42       1.0  0.32192  0.05066  0.91891  1.0000
  O   O43       1.0  0.82198  0.05037  0.41878  1.0000
  O   O44       1.0  0.82187  0.05033  0.91884  1.0000
  O   O45       1.0  0.57192  0.55053  0.66890  1.0000
  O   O46       1.0  0.57194  0.55047  0.16887  1.0000
  O   O47       1.0  0.07190  0.55039  0.66882  1.0000
  O   O48       1.0  0.07187  0.55043  0.16876  1.0000
  O   O49       1.0  0.12158  0.12546  0.23138  1.0000
  O   O50       1.0  0.12159  0.12542  0.73156  1.0000
  O   O51       1.0  0.62162  0.12539  0.23149  1.0000
  O   O52       1.0  0.62152  0.12538  0.73150  1.0000
  O   O53       1.0  0.37144  0.62548  0.48152  1.0000
  O   O54       1.0  0.37148  0.62548  0.98155  1.0000
  O   O55       1.0  0.87135  0.62552  0.48145  1.0000
  O   O56       1.0  0.87136  0.62556  0.98150  1.0000
  O   O57       1.0  0.21704  0.31674  0.29849  1.0000
  O   O58       1.0  0.21731  0.31672  0.79849  1.0000
  O   O59       1.0  0.71747  0.31659  0.29856  1.0000
  O   O60       1.0  0.71729  0.31664  0.79846  1.0000
  O   O61       1.0  0.46719  0.81668  0.54857  1.0000
  O   O62       1.0  0.46720  0.81678  0.04852  1.0000
  O   O63       1.0  0.96726  0.81671  0.54848  1.0000
  O   O64       1.0  0.96723  0.81661  0.04853  1.0000
  O   O65       1.0  0.12962  0.37499  0.01925  1.0000
  O   O66       1.0  0.12960  0.37495  0.51938  1.0000
  O   O67       1.0  0.62954  0.37502  0.01936  1.0000
  O   O68       1.0  0.62948  0.37506  0.51927  1.0000
  O   O69       1.0  0.37955  0.87511  0.26916  1.0000
  O   O70       1.0  0.37958  0.87504  0.76940  1.0000
  O   O71       1.0  0.87961  0.87511  0.26944  1.0000
  O   O72       1.0  0.87954  0.87517  0.76919  1.0000
  O   O73       1.0  0.03359  0.18388  0.95218  1.0000
  O   O74       1.0  0.03386  0.18389  0.45216  1.0000
  O   O75       1.0  0.53403  0.18392  0.95207  1.0000
  O   O76       1.0  0.53386  0.18391  0.45217  1.0000
  O   O77       1.0  0.28380  0.68392  0.20208  1.0000
  O   O78       1.0  0.28385  0.68395  0.70218  1.0000
  O   O79       1.0  0.78392  0.68394  0.20220  1.0000
  O   O80       1.0  0.78391  0.68390  0.70224  1.0000
