data_image0
_chemical_formula_structural       Y24Ti12O60
_chemical_formula_sum              "Y24 Ti12 O60"
_cell_length_a       11.0493
_cell_length_b       10.355
_cell_length_c       11.2462
_cell_angle_alpha    90
_cell_angle_beta     90
_cell_angle_gamma    90

_space_group_name_H-M_alt    "P 1"
_space_group_IT_number       1

loop_
  _space_group_symop_operation_xyz
  'x, y, z'

loop_
  _atom_site_type_symbol
  _atom_site_label
  _atom_site_symmetry_multiplicity
  _atom_site_fract_x
  _atom_site_fract_y
  _atom_site_fract_z
  _atom_site_occupancy
  Y   Y1        1.0  0.08371  0.13627  0.44343  1.0000
  Y   Y2        1.0  0.41714  0.13623  0.44337  1.0000
  Y   Y3        1.0  0.75043  0.13621  0.44344  1.0000
  Y   Y4        1.0  0.25048  0.86468  0.55757  1.0000
  Y   Y5        1.0  0.58379  0.86468  0.55758  1.0000
  Y   Y6        1.0  0.91711  0.86462  0.55753  1.0000
  Y   Y7        1.0  0.08381  0.63621  0.05758  1.0000
  Y   Y8        1.0  0.41712  0.63622  0.05755  1.0000
  Y   Y9        1.0  0.75046  0.63620  0.05765  1.0000
  Y   Y10       1.0  0.25043  0.36471  0.94344  1.0000
  Y   Y11       1.0  0.58384  0.36474  0.94347  1.0000
  Y   Y12       1.0  0.91716  0.36465  0.94347  1.0000
  Y   Y13       1.0  0.08381  0.11612  0.77757  1.0000
  Y   Y14       1.0  0.41712  0.11616  0.77763  1.0000
  Y   Y15       1.0  0.75049  0.11614  0.77763  1.0000
  Y   Y16       1.0  0.25048  0.88471  0.22340  1.0000
  Y   Y17       1.0  0.58378  0.88470  0.22337  1.0000
  Y   Y18       1.0  0.91713  0.88475  0.22338  1.0000
  Y   Y19       1.0  0.08384  0.61610  0.72343  1.0000
  Y   Y20       1.0  0.41713  0.61613  0.72337  1.0000
  Y   Y21       1.0  0.75049  0.61604  0.72335  1.0000
  Y   Y22       1.0  0.25043  0.38479  0.27761  1.0000
  Y   Y23       1.0  0.58378  0.38470  0.27758  1.0000
  Y   Y24       1.0  0.91715  0.38482  0.27760  1.0000
  Ti  Ti1       1.0  0.08381  0.17421  0.11916  1.0000
  Ti  Ti2       1.0  0.41713  0.17422  0.11913  1.0000
  Ti  Ti3       1.0  0.75044  0.17418  0.11915  1.0000
  Ti  Ti4       1.0  0.25047  0.82667  0.88186  1.0000
  Ti  Ti5       1.0  0.58381  0.82660  0.88181  1.0000
  Ti  Ti6       1.0  0.91712  0.82667  0.88183  1.0000
  Ti  Ti7       1.0  0.08385  0.67416  0.38186  1.0000
  Ti  Ti8       1.0  0.41711  0.67416  0.38186  1.0000
  Ti  Ti9       1.0  0.75045  0.67414  0.38181  1.0000
  Ti  Ti10      1.0  0.25044  0.32674  0.61909  1.0000
  Ti  Ti11      1.0  0.58381  0.32666  0.61917  1.0000
  Ti  Ti12      1.0  0.91709  0.32673  0.61916  1.0000
  O   O1        1.0  0.08378  0.26527  0.61635  1.0000
  O   O2        1.0  0.41713  0.26525  0.61643  1.0000
  O   O3        1.0  0.75047  0.26533  0.61641  1.0000
  O   O4        1.0  0.25047  0.73564  0.38460  1.0000
  O   O5        1.0  0.58378  0.73559  0.38453  1.0000
  O   O6        1.0  0.91712  0.73559  0.38456  1.0000
  O   O7        1.0  0.08382  0.76516  0.88457  1.0000
  O   O8        1.0  0.41710  0.76515  0.88456  1.0000
  O   O9        1.0  0.75049  0.76527  0.88463  1.0000
  O   O10       1.0  0.25049  0.23566  0.11638  1.0000
  O   O11       1.0  0.58382  0.23564  0.11641  1.0000
  O   O12       1.0  0.91712  0.23569  0.11642  1.0000
  O   O13       1.0  0.08382  0.50607  0.34631  1.0000
  O   O14       1.0  0.41717  0.50610  0.34620  1.0000
  O   O15       1.0  0.75050  0.50606  0.34629  1.0000
  O   O16       1.0  0.25051  0.49483  0.65476  1.0000
  O   O17       1.0  0.58379  0.49475  0.65472  1.0000
  O   O18       1.0  0.91718  0.49479  0.65478  1.0000
  O   O19       1.0  0.08391  0.00613  0.15471  1.0000
  O   O20       1.0  0.41714  0.00615  0.15481  1.0000
  O   O21       1.0  0.75052  0.00610  0.15481  1.0000
  O   O22       1.0  0.25056  0.99480  0.84634  1.0000
  O   O23       1.0  0.58376  0.99468  0.84625  1.0000
  O   O24       1.0  0.91720  0.99476  0.84619  1.0000
  O   O25       1.0  0.08379  0.25628  0.27059  1.0000
  O   O26       1.0  0.41711  0.25627  0.27057  1.0000
  O   O27       1.0  0.75045  0.25620  0.27066  1.0000
  O   O28       1.0  0.25046  0.74464  0.73038  1.0000
  O   O29       1.0  0.58383  0.74452  0.73038  1.0000
  O   O30       1.0  0.91715  0.74456  0.73037  1.0000
  O   O31       1.0  0.08384  0.75622  0.23040  1.0000
  O   O32       1.0  0.41703  0.75617  0.23038  1.0000
  O   O33       1.0  0.75049  0.75616  0.23030  1.0000
  O   O34       1.0  0.25047  0.24469  0.77057  1.0000
  O   O35       1.0  0.58384  0.24468  0.77060  1.0000
  O   O36       1.0  0.91711  0.24466  0.77062  1.0000
  O   O37       1.0  0.25045  0.00590  0.39533  1.0000
  O   O38       1.0  0.58388  0.00582  0.39521  1.0000
  O   O39       1.0  0.91711  0.00595  0.39525  1.0000
  O   O40       1.0  0.08373  0.99497  0.60574  1.0000
  O   O41       1.0  0.41727  0.99500  0.60574  1.0000
  O   O42       1.0  0.75048  0.99496  0.60578  1.0000
  O   O43       1.0  0.25042  0.50593  0.10582  1.0000
  O   O44       1.0  0.58384  0.50592  0.10578  1.0000
  O   O45       1.0  0.91714  0.50591  0.10581  1.0000
  O   O46       1.0  0.08388  0.49489  0.89530  1.0000
  O   O47       1.0  0.41716  0.49501  0.89529  1.0000
  O   O48       1.0  0.75050  0.49496  0.89526  1.0000
  O   O49       1.0  0.25047  0.27526  0.45681  1.0000
  O   O50       1.0  0.58377  0.27516  0.45682  1.0000
  O   O51       1.0  0.91713  0.27530  0.45681  1.0000
  O   O52       1.0  0.08379  0.72560  0.54418  1.0000
  O   O53       1.0  0.41714  0.72577  0.54414  1.0000
  O   O54       1.0  0.75045  0.72571  0.54415  1.0000
  O   O55       1.0  0.25043  0.77515  0.04416  1.0000
  O   O56       1.0  0.58370  0.77514  0.04413  1.0000
  O   O57       1.0  0.91716  0.77519  0.04417  1.0000
  O   O58       1.0  0.08382  0.22565  0.95687  1.0000
  O   O59       1.0  0.41715  0.22578  0.95684  1.0000
  O   O60       1.0  0.75048  0.22570  0.95685  1.0000
