data_image0
_chemical_formula_structural       Ti48Al16O96
_chemical_formula_sum              "Ti48 Al16 O96"
_cell_length_a       11.7623
_cell_length_b       10.1869
_cell_length_c       14.4501
_cell_angle_alpha    89.9762
_cell_angle_beta     89.9995
_cell_angle_gamma    90.0001

_space_group_name_H-M_alt    "P 1"
_space_group_IT_number       1

loop_
  _space_group_symop_operation_xyz
  'x, y, z'

loop_
  _atom_site_type_symbol
  _atom_site_label
  _atom_site_symmetry_multiplicity
  _atom_site_fract_x
  _atom_site_fract_y
  _atom_site_fract_z
  _atom_site_occupancy
  Ti  Ti1       1.0  0.25039  0.34156  0.66395  1.0000
  Ti  Ti2       1.0  0.50038  0.84153  0.66399  1.0000
  Ti  Ti3       1.0  0.75040  0.34146  0.66399  1.0000
  Ti  Ti4       1.0  0.00039  0.84150  0.66402  1.0000
  Ti  Ti5       1.0  0.25040  0.65936  0.33670  1.0000
  Ti  Ti6       1.0  0.50041  0.15940  0.33666  1.0000
  Ti  Ti7       1.0  0.75041  0.65932  0.33668  1.0000
  Ti  Ti8       1.0  0.00041  0.15946  0.33657  1.0000
  Ti  Ti9       1.0  0.25042  0.00053  0.00033  1.0000
  Ti  Ti10      1.0  0.50046  0.50046  0.00027  1.0000
  Ti  Ti11      1.0  0.75042  0.00052  0.00026  1.0000
  Ti  Ti12      1.0  0.00042  0.50048  0.00027  1.0000
  Ti  Ti13      1.0  0.11965  0.08000  0.66393  1.0000
  Ti  Ti14      1.0  0.36972  0.57996  0.66400  1.0000
  Ti  Ti15      1.0  0.61971  0.07993  0.66394  1.0000
  Ti  Ti16      1.0  0.86969  0.57992  0.66398  1.0000
  Ti  Ti17      1.0  0.38116  0.92095  0.33676  1.0000
  Ti  Ti18      1.0  0.63116  0.42091  0.33672  1.0000
  Ti  Ti19      1.0  0.88114  0.92091  0.33673  1.0000
  Ti  Ti20      1.0  0.13114  0.42097  0.33665  1.0000
  Ti  Ti21      1.0  0.12540  0.75036  0.00027  1.0000
  Ti  Ti22      1.0  0.37548  0.25045  0.00030  1.0000
  Ti  Ti23      1.0  0.62537  0.75037  0.00027  1.0000
  Ti  Ti24      1.0  0.87547  0.25043  0.00027  1.0000
  Ti  Ti25      1.0  0.00041  0.00046  0.50025  1.0000
  Ti  Ti26      1.0  0.25040  0.50047  0.50042  1.0000
  Ti  Ti27      1.0  0.50041  0.00047  0.50035  1.0000
  Ti  Ti28      1.0  0.75042  0.50043  0.50033  1.0000
  Ti  Ti29      1.0  0.25041  0.83368  0.17875  1.0000
  Ti  Ti30      1.0  0.50044  0.33362  0.17865  1.0000
  Ti  Ti31      1.0  0.75037  0.83359  0.17875  1.0000
  Ti  Ti32      1.0  0.00039  0.33372  0.17854  1.0000
  Ti  Ti33      1.0  0.25034  0.16745  0.82199  1.0000
  Ti  Ti34      1.0  0.50041  0.66740  0.82204  1.0000
  Ti  Ti35      1.0  0.75039  0.16725  0.82203  1.0000
  Ti  Ti36      1.0  0.00037  0.66741  0.82208  1.0000
  Ti  Ti37      1.0  0.38110  0.08000  0.66396  1.0000
  Ti  Ti38      1.0  0.63112  0.57999  0.66398  1.0000
  Ti  Ti39      1.0  0.88116  0.07994  0.66394  1.0000
  Ti  Ti40      1.0  0.13109  0.57999  0.66401  1.0000
  Ti  Ti41      1.0  0.11966  0.92095  0.33675  1.0000
  Ti  Ti42      1.0  0.36970  0.42097  0.33668  1.0000
  Ti  Ti43      1.0  0.61962  0.92092  0.33676  1.0000
  Ti  Ti44      1.0  0.86970  0.42094  0.33665  1.0000
  Ti  Ti45      1.0  0.12537  0.25053  0.00029  1.0000
  Ti  Ti46      1.0  0.37554  0.75040  0.00032  1.0000
  Ti  Ti47      1.0  0.62548  0.25044  0.00029  1.0000
  Ti  Ti48      1.0  0.87554  0.75038  0.00028  1.0000
  Al  Al1       1.0  0.25041  0.16717  0.46038  1.0000
  Al  Al2       1.0  0.50041  0.66706  0.46043  1.0000
  Al  Al3       1.0  0.75044  0.16709  0.46040  1.0000
  Al  Al4       1.0  0.00042  0.66705  0.46043  1.0000
  Al  Al5       1.0  0.00039  0.00030  0.12499  1.0000
  Al  Al6       1.0  0.25048  0.50043  0.12497  1.0000
  Al  Al7       1.0  0.50043  0.00032  0.12499  1.0000
  Al  Al8       1.0  0.75040  0.50041  0.12497  1.0000
  Al  Al9       1.0  0.25041  0.83386  0.54028  1.0000
  Al  Al10      1.0  0.50043  0.33383  0.54027  1.0000
  Al  Al11      1.0  0.75043  0.83379  0.54027  1.0000
  Al  Al12      1.0  0.00041  0.33382  0.54021  1.0000
  Al  Al13      1.0  0.00048  0.00057  0.87559  1.0000
  Al  Al14      1.0  0.25045  0.50053  0.87559  1.0000
  Al  Al15      1.0  0.50037  0.00059  0.87557  1.0000
  Al  Al16      1.0  0.75042  0.50048  0.87558  1.0000
  O   O1        1.0  0.25041  0.16724  0.58301  1.0000
  O   O2        1.0  0.50042  0.66718  0.58305  1.0000
  O   O3        1.0  0.75046  0.16715  0.58302  1.0000
  O   O4        1.0  0.00041  0.66719  0.58305  1.0000
  O   O5        1.0  0.00041  0.00049  0.24629  1.0000
  O   O6        1.0  0.25047  0.50055  0.24626  1.0000
  O   O7        1.0  0.50041  0.00050  0.24629  1.0000
  O   O8        1.0  0.75041  0.50051  0.24626  1.0000
  O   O9        1.0  0.25049  0.83403  0.93426  1.0000
  O   O10       1.0  0.50043  0.33393  0.93414  1.0000
  O   O11       1.0  0.75045  0.83397  0.93424  1.0000
  O   O12       1.0  0.00043  0.33400  0.93407  1.0000
  O   O13       1.0  0.12815  0.91544  0.57989  1.0000
  O   O14       1.0  0.37820  0.41544  0.57990  1.0000
  O   O15       1.0  0.62818  0.91540  0.57987  1.0000
  O   O16       1.0  0.87818  0.41539  0.57988  1.0000
  O   O17       1.0  0.36167  0.75981  0.26015  1.0000
  O   O18       1.0  0.61169  0.25978  0.26010  1.0000
  O   O19       1.0  0.86167  0.75976  0.26012  1.0000
  O   O20       1.0  0.11166  0.25987  0.26004  1.0000
  O   O21       1.0  0.37540  0.08394  0.91641  1.0000
  O   O22       1.0  0.62548  0.58384  0.91642  1.0000
  O   O23       1.0  0.87550  0.08387  0.91642  1.0000
  O   O24       1.0  0.12550  0.58387  0.91640  1.0000
  O   O25       1.0  0.25044  0.67074  0.57990  1.0000
  O   O26       1.0  0.50042  0.17074  0.57989  1.0000
  O   O27       1.0  0.75044  0.67069  0.57986  1.0000
  O   O28       1.0  0.00042  0.17071  0.57980  1.0000
  O   O29       1.0  0.25042  0.98189  0.26013  1.0000
  O   O30       1.0  0.50046  0.48187  0.26010  1.0000
  O   O31       1.0  0.75038  0.98180  0.26011  1.0000
  O   O32       1.0  0.00042  0.48191  0.26006  1.0000
  O   O33       1.0  0.25046  0.33386  0.91640  1.0000
  O   O34       1.0  0.50044  0.83392  0.91640  1.0000
  O   O35       1.0  0.75041  0.33381  0.91639  1.0000
  O   O36       1.0  0.00045  0.83391  0.91642  1.0000
  O   O37       1.0  0.37265  0.91548  0.57987  1.0000
  O   O38       1.0  0.62269  0.41540  0.57989  1.0000
  O   O39       1.0  0.87268  0.91542  0.57986  1.0000
  O   O40       1.0  0.12261  0.41547  0.57986  1.0000
  O   O41       1.0  0.13916  0.75979  0.26011  1.0000
  O   O42       1.0  0.38917  0.25981  0.26009  1.0000
  O   O43       1.0  0.63913  0.75975  0.26014  1.0000
  O   O44       1.0  0.88915  0.25983  0.26004  1.0000
  O   O45       1.0  0.12544  0.08389  0.91643  1.0000
  O   O46       1.0  0.37539  0.58387  0.91644  1.0000
  O   O47       1.0  0.62535  0.08386  0.91641  1.0000
  O   O48       1.0  0.87534  0.58385  0.91642  1.0000
  O   O49       1.0  0.37266  0.08555  0.42078  1.0000
  O   O50       1.0  0.62266  0.58546  0.42079  1.0000
  O   O51       1.0  0.87268  0.08553  0.42071  1.0000
  O   O52       1.0  0.12266  0.58548  0.42079  1.0000
  O   O53       1.0  0.12542  0.91698  0.08419  1.0000
  O   O54       1.0  0.37546  0.41705  0.08418  1.0000
  O   O55       1.0  0.62542  0.91696  0.08416  1.0000
  O   O56       1.0  0.87534  0.41703  0.08414  1.0000
  O   O57       1.0  0.13908  0.24119  0.74051  1.0000
  O   O58       1.0  0.38915  0.74117  0.74055  1.0000
  O   O59       1.0  0.63914  0.24108  0.74054  1.0000
  O   O60       1.0  0.88912  0.74115  0.74055  1.0000
  O   O61       1.0  0.25038  0.83373  0.41767  1.0000
  O   O62       1.0  0.50044  0.33374  0.41765  1.0000
  O   O63       1.0  0.75044  0.83367  0.41765  1.0000
  O   O64       1.0  0.00044  0.33373  0.41758  1.0000
  O   O65       1.0  0.25041  0.16699  0.06643  1.0000
  O   O66       1.0  0.50045  0.66689  0.06654  1.0000
  O   O67       1.0  0.75046  0.16687  0.06649  1.0000
  O   O68       1.0  0.00044  0.66694  0.06652  1.0000
  O   O69       1.0  0.00046  0.00038  0.75433  1.0000
  O   O70       1.0  0.25043  0.50041  0.75432  1.0000
  O   O71       1.0  0.50039  0.00045  0.75431  1.0000
  O   O72       1.0  0.75039  0.50033  0.75432  1.0000
  O   O73       1.0  0.25044  0.33028  0.42077  1.0000
  O   O74       1.0  0.50040  0.83016  0.42086  1.0000
  O   O75       1.0  0.75047  0.33018  0.42080  1.0000
  O   O76       1.0  0.00042  0.83014  0.42079  1.0000
  O   O77       1.0  0.25046  0.66714  0.08419  1.0000
  O   O78       1.0  0.50046  0.16701  0.08416  1.0000
  O   O79       1.0  0.75045  0.66712  0.08418  1.0000
  O   O80       1.0  0.00043  0.16700  0.08419  1.0000
  O   O81       1.0  0.25038  0.01915  0.74056  1.0000
  O   O82       1.0  0.50044  0.51909  0.74057  1.0000
  O   O83       1.0  0.75041  0.01902  0.74056  1.0000
  O   O84       1.0  0.00038  0.51911  0.74058  1.0000
  O   O85       1.0  0.12814  0.08559  0.42075  1.0000
  O   O86       1.0  0.37816  0.58545  0.42080  1.0000
  O   O87       1.0  0.62817  0.08551  0.42079  1.0000
  O   O88       1.0  0.87818  0.58543  0.42078  1.0000
  O   O89       1.0  0.37541  0.91701  0.08419  1.0000
  O   O90       1.0  0.62545  0.41703  0.08416  1.0000
  O   O91       1.0  0.87539  0.91696  0.08420  1.0000
  O   O92       1.0  0.12552  0.41710  0.08414  1.0000
  O   O93       1.0  0.36166  0.24116  0.74055  1.0000
  O   O94       1.0  0.61170  0.74116  0.74052  1.0000
  O   O95       1.0  0.86168  0.24107  0.74051  1.0000
  O   O96       1.0  0.11169  0.74119  0.74054  1.0000
