data_image0
_chemical_formula_structural       Nb36O90
_chemical_formula_sum              "Nb36 O90"
_cell_length_a       11.5731
_cell_length_b       12.0008
_cell_length_c       13.5823
_cell_angle_alpha    90.7728
_cell_angle_beta     106.498
_cell_angle_gamma    89.9998

_space_group_name_H-M_alt    "P 1"
_space_group_IT_number       1

loop_
  _space_group_symop_operation_xyz
  'x, y, z'

loop_
  _atom_site_type_symbol
  _atom_site_label
  _atom_site_symmetry_multiplicity
  _atom_site_fract_x
  _atom_site_fract_y
  _atom_site_fract_z
  _atom_site_occupancy
  Nb  Nb1       1.0  0.04928  0.02182  0.14661  1.0000
  Nb  Nb2       1.0  0.04936  0.02182  0.64662  1.0000
  Nb  Nb3       1.0  0.04935  0.35519  0.14665  1.0000
  Nb  Nb4       1.0  0.04927  0.35520  0.64669  1.0000
  Nb  Nb5       1.0  0.04939  0.68848  0.14671  1.0000
  Nb  Nb6       1.0  0.04931  0.68851  0.64672  1.0000
  Nb  Nb7       1.0  0.38267  0.02184  0.14666  1.0000
  Nb  Nb8       1.0  0.38269  0.02182  0.64666  1.0000
  Nb  Nb9       1.0  0.38275  0.35519  0.14668  1.0000
  Nb  Nb10      1.0  0.38267  0.35521  0.64667  1.0000
  Nb  Nb11      1.0  0.38273  0.68850  0.14672  1.0000
  Nb  Nb12      1.0  0.38266  0.68852  0.64672  1.0000
  Nb  Nb13      1.0  0.71598  0.02183  0.14660  1.0000
  Nb  Nb14      1.0  0.71605  0.02187  0.64662  1.0000
  Nb  Nb15      1.0  0.71608  0.35514  0.14666  1.0000
  Nb  Nb16      1.0  0.71594  0.35522  0.64662  1.0000
  Nb  Nb17      1.0  0.71609  0.68850  0.14671  1.0000
  Nb  Nb18      1.0  0.71594  0.68851  0.64670  1.0000
  Nb  Nb19      1.0  0.28515  0.31234  0.35413  1.0000
  Nb  Nb20      1.0  0.28512  0.31236  0.85411  1.0000
  Nb  Nb21      1.0  0.28522  0.64567  0.35418  1.0000
  Nb  Nb22      1.0  0.28511  0.64569  0.85420  1.0000
  Nb  Nb23      1.0  0.28514  0.97903  0.35410  1.0000
  Nb  Nb24      1.0  0.28514  0.97905  0.85409  1.0000
  Nb  Nb25      1.0  0.61850  0.31234  0.35409  1.0000
  Nb  Nb26      1.0  0.61841  0.31232  0.85410  1.0000
  Nb  Nb27      1.0  0.61853  0.64566  0.35414  1.0000
  Nb  Nb28      1.0  0.61848  0.64567  0.85416  1.0000
  Nb  Nb29      1.0  0.61845  0.97903  0.35407  1.0000
  Nb  Nb30      1.0  0.61846  0.97902  0.85406  1.0000
  Nb  Nb31      1.0  0.95187  0.31229  0.35415  1.0000
  Nb  Nb32      1.0  0.95177  0.31234  0.85413  1.0000
  Nb  Nb33      1.0  0.95192  0.64564  0.35420  1.0000
  Nb  Nb34      1.0  0.95180  0.64568  0.85417  1.0000
  Nb  Nb35      1.0  0.95180  0.97899  0.35408  1.0000
  Nb  Nb36      1.0  0.95184  0.97905  0.85408  1.0000
  O   O1        1.0  0.05008  0.17238  0.14904  1.0000
  O   O2        1.0  0.05018  0.17238  0.64899  1.0000
  O   O3        1.0  0.05019  0.50574  0.14899  1.0000
  O   O4        1.0  0.05010  0.50575  0.64899  1.0000
  O   O5        1.0  0.05019  0.83901  0.14898  1.0000
  O   O6        1.0  0.05009  0.83904  0.64904  1.0000
  O   O7        1.0  0.38352  0.17239  0.14900  1.0000
  O   O8        1.0  0.38346  0.17239  0.64900  1.0000
  O   O9        1.0  0.38354  0.50574  0.14901  1.0000
  O   O10       1.0  0.38343  0.50575  0.64903  1.0000
  O   O11       1.0  0.38351  0.83904  0.14905  1.0000
  O   O12       1.0  0.38341  0.83905  0.64904  1.0000
  O   O13       1.0  0.71689  0.17237  0.14906  1.0000
  O   O14       1.0  0.71675  0.17241  0.64900  1.0000
  O   O15       1.0  0.71686  0.50571  0.14903  1.0000
  O   O16       1.0  0.71675  0.50576  0.64904  1.0000
  O   O17       1.0  0.71678  0.83903  0.14896  1.0000
  O   O18       1.0  0.71677  0.83905  0.64890  1.0000
  O   O19       1.0  0.28441  0.16180  0.35180  1.0000
  O   O20       1.0  0.28435  0.16182  0.85180  1.0000
  O   O21       1.0  0.28455  0.49512  0.35184  1.0000
  O   O22       1.0  0.28439  0.49515  0.85189  1.0000
  O   O23       1.0  0.28437  0.82849  0.35174  1.0000
  O   O24       1.0  0.28433  0.82850  0.85174  1.0000
  O   O25       1.0  0.61776  0.16181  0.35175  1.0000
  O   O26       1.0  0.61773  0.16180  0.85176  1.0000
  O   O27       1.0  0.61773  0.49511  0.35174  1.0000
  O   O28       1.0  0.61763  0.49512  0.85175  1.0000
  O   O29       1.0  0.61774  0.82848  0.35188  1.0000
  O   O30       1.0  0.61774  0.82849  0.85187  1.0000
  O   O31       1.0  0.95106  0.16175  0.35179  1.0000
  O   O32       1.0  0.95101  0.16180  0.85177  1.0000
  O   O33       1.0  0.95112  0.49509  0.35183  1.0000
  O   O34       1.0  0.95098  0.49512  0.85177  1.0000
  O   O35       1.0  0.95115  0.82845  0.35179  1.0000
  O   O36       1.0  0.95105  0.82850  0.85175  1.0000
  O   O37       1.0  0.00040  0.00045  0.00035  1.0000
  O   O38       1.0  0.00065  0.00039  0.50038  1.0000
  O   O39       1.0  0.00045  0.33379  0.00042  1.0000
  O   O40       1.0  0.00045  0.33373  0.50040  1.0000
  O   O41       1.0  0.00051  0.66704  0.00044  1.0000
  O   O42       1.0  0.00071  0.66718  0.50042  1.0000
  O   O43       1.0  0.33374  0.00049  0.00037  1.0000
  O   O44       1.0  0.33401  0.00034  0.50038  1.0000
  O   O45       1.0  0.33395  0.33379  0.00037  1.0000
  O   O46       1.0  0.33383  0.33378  0.50041  1.0000
  O   O47       1.0  0.33384  0.66721  0.00044  1.0000
  O   O48       1.0  0.33393  0.66717  0.50043  1.0000
  O   O49       1.0  0.66724  0.00053  0.00033  1.0000
  O   O50       1.0  0.66732  0.00048  0.50033  1.0000
  O   O51       1.0  0.66728  0.33371  0.00040  1.0000
  O   O52       1.0  0.66713  0.33381  0.50041  1.0000
  O   O53       1.0  0.66735  0.66702  0.00042  1.0000
  O   O54       1.0  0.66723  0.66702  0.50044  1.0000
  O   O55       1.0  0.10558  0.33192  0.31518  1.0000
  O   O56       1.0  0.10547  0.33197  0.81526  1.0000
  O   O57       1.0  0.10557  0.66522  0.31525  1.0000
  O   O58       1.0  0.10544  0.66526  0.81525  1.0000
  O   O59       1.0  0.10549  0.99863  0.31512  1.0000
  O   O60       1.0  0.10549  0.99871  0.81517  1.0000
  O   O61       1.0  0.43891  0.33197  0.31520  1.0000
  O   O62       1.0  0.43878  0.33192  0.81518  1.0000
  O   O63       1.0  0.43885  0.66531  0.31521  1.0000
  O   O64       1.0  0.43882  0.66538  0.81528  1.0000
  O   O65       1.0  0.43887  0.99872  0.31520  1.0000
  O   O66       1.0  0.43886  0.99871  0.81521  1.0000
  O   O67       1.0  0.77222  0.33198  0.31524  1.0000
  O   O68       1.0  0.77213  0.33200  0.81520  1.0000
  O   O69       1.0  0.77223  0.66528  0.31525  1.0000
  O   O70       1.0  0.77214  0.66540  0.81523  1.0000
  O   O71       1.0  0.77218  0.99854  0.31512  1.0000
  O   O72       1.0  0.77216  0.99866  0.81512  1.0000
  O   O73       1.0  0.22896  0.00226  0.18556  1.0000
  O   O74       1.0  0.22898  0.00219  0.68557  1.0000
  O   O75       1.0  0.22903  0.33557  0.18557  1.0000
  O   O76       1.0  0.22894  0.33559  0.68562  1.0000
  O   O77       1.0  0.22907  0.66881  0.18565  1.0000
  O   O78       1.0  0.22902  0.66892  0.68569  1.0000
  O   O79       1.0  0.56231  0.00218  0.18554  1.0000
  O   O80       1.0  0.56231  0.00220  0.68558  1.0000
  O   O81       1.0  0.56240  0.33559  0.18565  1.0000
  O   O82       1.0  0.56226  0.33559  0.68561  1.0000
  O   O83       1.0  0.56238  0.66889  0.18562  1.0000
  O   O84       1.0  0.56229  0.66888  0.68561  1.0000
  O   O85       1.0  0.89559  0.00213  0.18551  1.0000
  O   O86       1.0  0.89566  0.00225  0.68555  1.0000
  O   O87       1.0  0.89565  0.33554  0.18560  1.0000
  O   O88       1.0  0.89560  0.33556  0.68563  1.0000
  O   O89       1.0  0.89574  0.66884  0.18569  1.0000
  O   O90       1.0  0.89564  0.66887  0.68561  1.0000
