data_image0
_chemical_formula_structural       Y48Ta16O112
_chemical_formula_sum              "Y48 Ta16 O112"
_cell_length_a       14.9984
_cell_length_b       10.4928
_cell_length_c       14.8671
_cell_angle_alpha    89.9994
_cell_angle_beta     90.0004
_cell_angle_gamma    89.9963

_space_group_name_H-M_alt    "P 1"
_space_group_IT_number       1

loop_
  _space_group_symop_operation_xyz
  'x, y, z'

loop_
  _atom_site_type_symbol
  _atom_site_label
  _atom_site_symmetry_multiplicity
  _atom_site_fract_x
  _atom_site_fract_y
  _atom_site_fract_z
  _atom_site_occupancy
  Y   Y1        1.0  0.38379  0.76766  0.12147  1.0000
  Y   Y2        1.0  0.38386  0.76755  0.62152  1.0000
  Y   Y3        1.0  0.63376  0.26756  0.12152  1.0000
  Y   Y4        1.0  0.63382  0.26770  0.62147  1.0000
  Y   Y5        1.0  0.88382  0.76766  0.12144  1.0000
  Y   Y6        1.0  0.88386  0.76764  0.62151  1.0000
  Y   Y7        1.0  0.13388  0.26766  0.12145  1.0000
  Y   Y8        1.0  0.13387  0.26766  0.62151  1.0000
  Y   Y9        1.0  0.11684  0.23319  0.37151  1.0000
  Y   Y10       1.0  0.11682  0.23319  0.87151  1.0000
  Y   Y11       1.0  0.36678  0.73318  0.37141  1.0000
  Y   Y12       1.0  0.36689  0.73321  0.87153  1.0000
  Y   Y13       1.0  0.61685  0.23315  0.37150  1.0000
  Y   Y14       1.0  0.61682  0.23327  0.87149  1.0000
  Y   Y15       1.0  0.86679  0.73331  0.37147  1.0000
  Y   Y16       1.0  0.86688  0.73322  0.87150  1.0000
  Y   Y17       1.0  0.38388  0.23322  0.37918  1.0000
  Y   Y18       1.0  0.38382  0.23322  0.87915  1.0000
  Y   Y19       1.0  0.63382  0.73318  0.37918  1.0000
  Y   Y20       1.0  0.63389  0.73333  0.87913  1.0000
  Y   Y21       1.0  0.88388  0.23323  0.37916  1.0000
  Y   Y22       1.0  0.88383  0.23320  0.87917  1.0000
  Y   Y23       1.0  0.13382  0.73323  0.37921  1.0000
  Y   Y24       1.0  0.13387  0.73316  0.87916  1.0000
  Y   Y25       1.0  0.11682  0.76760  0.12915  1.0000
  Y   Y26       1.0  0.11690  0.76765  0.62913  1.0000
  Y   Y27       1.0  0.36685  0.26759  0.12916  1.0000
  Y   Y28       1.0  0.36689  0.26759  0.62913  1.0000
  Y   Y29       1.0  0.61681  0.76773  0.12922  1.0000
  Y   Y30       1.0  0.61686  0.76770  0.62918  1.0000
  Y   Y31       1.0  0.86681  0.26769  0.12918  1.0000
  Y   Y32       1.0  0.86684  0.26770  0.62918  1.0000
  Y   Y33       1.0  0.23499  0.00035  0.00034  1.0000
  Y   Y34       1.0  0.23503  0.00042  0.50035  1.0000
  Y   Y35       1.0  0.48506  0.50039  0.00035  1.0000
  Y   Y36       1.0  0.48502  0.50047  0.50030  1.0000
  Y   Y37       1.0  0.73493  0.00054  0.00035  1.0000
  Y   Y38       1.0  0.73506  0.00044  0.50031  1.0000
  Y   Y39       1.0  0.98486  0.50042  0.00029  1.0000
  Y   Y40       1.0  0.98493  0.50044  0.50028  1.0000
  Y   Y41       1.0  0.26566  0.00048  0.25035  1.0000
  Y   Y42       1.0  0.26569  0.00038  0.75040  1.0000
  Y   Y43       1.0  0.51571  0.50051  0.25029  1.0000
  Y   Y44       1.0  0.51568  0.50046  0.75030  1.0000
  Y   Y45       1.0  0.76576  0.00062  0.25031  1.0000
  Y   Y46       1.0  0.76573  0.00052  0.75029  1.0000
  Y   Y47       1.0  0.01574  0.50039  0.25031  1.0000
  Y   Y48       1.0  0.01579  0.50047  0.75030  1.0000
  Ta  Ta1       1.0  0.49953  0.00043  0.00029  1.0000
  Ta  Ta2       1.0  0.49961  0.00027  0.50031  1.0000
  Ta  Ta3       1.0  0.74949  0.50047  0.00036  1.0000
  Ta  Ta4       1.0  0.74958  0.50046  0.50031  1.0000
  Ta  Ta5       1.0  0.99961  0.00043  0.00033  1.0000
  Ta  Ta6       1.0  0.99956  0.00046  0.50034  1.0000
  Ta  Ta7       1.0  0.24969  0.50042  0.00030  1.0000
  Ta  Ta8       1.0  0.24963  0.50040  0.50028  1.0000
  Ta  Ta9       1.0  0.00109  0.00040  0.25031  1.0000
  Ta  Ta10      1.0  0.00113  0.00041  0.75032  1.0000
  Ta  Ta11      1.0  0.25105  0.50034  0.25030  1.0000
  Ta  Ta12      1.0  0.25117  0.50041  0.75031  1.0000
  Ta  Ta13      1.0  0.50104  0.00039  0.25035  1.0000
  Ta  Ta14      1.0  0.50112  0.00043  0.75029  1.0000
  Ta  Ta15      1.0  0.75105  0.50047  0.25034  1.0000
  Ta  Ta16      1.0  0.75110  0.50044  0.75034  1.0000
  O   O1        1.0  0.25041  0.56750  0.37527  1.0000
  O   O2        1.0  0.25045  0.56749  0.87528  1.0000
  O   O3        1.0  0.50038  0.06743  0.37534  1.0000
  O   O4        1.0  0.50041  0.06740  0.87530  1.0000
  O   O5        1.0  0.75033  0.56767  0.37533  1.0000
  O   O6        1.0  0.75033  0.56752  0.87534  1.0000
  O   O7        1.0  0.00036  0.06749  0.37530  1.0000
  O   O8        1.0  0.00030  0.06747  0.87533  1.0000
  O   O9        1.0  0.25026  0.43333  0.12530  1.0000
  O   O10       1.0  0.25040  0.43343  0.62529  1.0000
  O   O11       1.0  0.50028  0.93339  0.12530  1.0000
  O   O12       1.0  0.50032  0.93331  0.62531  1.0000
  O   O13       1.0  0.75024  0.43338  0.12534  1.0000
  O   O14       1.0  0.75028  0.43347  0.62530  1.0000
  O   O15       1.0  0.00041  0.93325  0.12533  1.0000
  O   O16       1.0  0.00032  0.93336  0.62531  1.0000
  O   O17       1.0  0.25037  0.13980  0.12540  1.0000
  O   O18       1.0  0.25036  0.13978  0.62530  1.0000
  O   O19       1.0  0.50033  0.63988  0.12531  1.0000
  O   O20       1.0  0.50042  0.63976  0.62533  1.0000
  O   O21       1.0  0.75035  0.13989  0.12531  1.0000
  O   O22       1.0  0.75035  0.13990  0.62540  1.0000
  O   O23       1.0  0.00033  0.63976  0.12524  1.0000
  O   O24       1.0  0.00039  0.63981  0.62527  1.0000
  O   O25       1.0  0.25030  0.86109  0.37540  1.0000
  O   O26       1.0  0.25035  0.86113  0.87527  1.0000
  O   O27       1.0  0.50036  0.36108  0.37530  1.0000
  O   O28       1.0  0.50027  0.36100  0.87525  1.0000
  O   O29       1.0  0.75030  0.86121  0.37528  1.0000
  O   O30       1.0  0.75040  0.86115  0.87538  1.0000
  O   O31       1.0  0.00035  0.36115  0.37530  1.0000
  O   O32       1.0  0.00033  0.36110  0.87533  1.0000
  O   O33       1.0  0.25037  0.12939  0.37539  1.0000
  O   O34       1.0  0.25033  0.12932  0.87533  1.0000
  O   O35       1.0  0.50031  0.62941  0.37527  1.0000
  O   O36       1.0  0.50047  0.62944  0.87537  1.0000
  O   O37       1.0  0.75037  0.12946  0.37532  1.0000
  O   O38       1.0  0.75030  0.12953  0.87535  1.0000
  O   O39       1.0  0.00026  0.62946  0.37531  1.0000
  O   O40       1.0  0.00037  0.62937  0.87531  1.0000
  O   O41       1.0  0.25028  0.87151  0.12537  1.0000
  O   O42       1.0  0.25034  0.87139  0.62535  1.0000
  O   O43       1.0  0.50038  0.37152  0.12534  1.0000
  O   O44       1.0  0.50032  0.37147  0.62525  1.0000
  O   O45       1.0  0.75028  0.87163  0.12532  1.0000
  O   O46       1.0  0.75037  0.87156  0.62536  1.0000
  O   O47       1.0  0.00037  0.37150  0.12531  1.0000
  O   O48       1.0  0.00034  0.37151  0.62531  1.0000
  O   O49       1.0  0.10268  0.87750  0.48795  1.0000
  O   O50       1.0  0.10277  0.87753  0.98788  1.0000
  O   O51       1.0  0.35279  0.37745  0.48790  1.0000
  O   O52       1.0  0.35282  0.37760  0.98796  1.0000
  O   O53       1.0  0.60275  0.87739  0.48798  1.0000
  O   O54       1.0  0.60265  0.87751  0.98791  1.0000
  O   O55       1.0  0.85278  0.37761  0.48793  1.0000
  O   O56       1.0  0.85261  0.37742  0.98794  1.0000
  O   O57       1.0  0.39794  0.12338  0.23799  1.0000
  O   O58       1.0  0.39794  0.12330  0.73796  1.0000
  O   O59       1.0  0.64790  0.62333  0.23792  1.0000
  O   O60       1.0  0.64805  0.62351  0.73793  1.0000
  O   O61       1.0  0.89792  0.12337  0.23791  1.0000
  O   O62       1.0  0.89798  0.12337  0.73790  1.0000
  O   O63       1.0  0.14786  0.62327  0.23797  1.0000
  O   O64       1.0  0.14798  0.62331  0.73790  1.0000
  O   O65       1.0  0.09106  0.87207  0.27150  1.0000
  O   O66       1.0  0.09114  0.87205  0.77140  1.0000
  O   O67       1.0  0.34105  0.37203  0.27136  1.0000
  O   O68       1.0  0.34114  0.37202  0.77136  1.0000
  O   O69       1.0  0.59082  0.87180  0.27147  1.0000
  O   O70       1.0  0.59121  0.87217  0.77139  1.0000
  O   O71       1.0  0.84102  0.37207  0.27144  1.0000
  O   O72       1.0  0.84094  0.37190  0.77148  1.0000
  O   O73       1.0  0.40957  0.12891  0.02134  1.0000
  O   O74       1.0  0.40966  0.12870  0.52145  1.0000
  O   O75       1.0  0.65970  0.62905  0.02148  1.0000
  O   O76       1.0  0.65951  0.62871  0.52143  1.0000
  O   O77       1.0  0.90963  0.12875  0.02148  1.0000
  O   O78       1.0  0.90957  0.12887  0.52143  1.0000
  O   O79       1.0  0.15975  0.62888  0.02142  1.0000
  O   O80       1.0  0.15970  0.62888  0.52138  1.0000
  O   O81       1.0  0.09108  0.12876  0.22917  1.0000
  O   O82       1.0  0.09112  0.12876  0.72922  1.0000
  O   O83       1.0  0.34096  0.62877  0.22911  1.0000
  O   O84       1.0  0.34122  0.62870  0.72924  1.0000
  O   O85       1.0  0.59113  0.12858  0.22917  1.0000
  O   O86       1.0  0.59101  0.12887  0.72916  1.0000
  O   O87       1.0  0.84099  0.62878  0.22910  1.0000
  O   O88       1.0  0.84121  0.62868  0.72921  1.0000
  O   O89       1.0  0.40959  0.87196  0.47916  1.0000
  O   O90       1.0  0.40941  0.87224  0.97922  1.0000
  O   O91       1.0  0.65968  0.37201  0.47910  1.0000
  O   O92       1.0  0.65933  0.37240  0.97920  1.0000
  O   O93       1.0  0.90949  0.87220  0.47918  1.0000
  O   O94       1.0  0.90966  0.87203  0.97922  1.0000
  O   O95       1.0  0.15961  0.37208  0.47922  1.0000
  O   O96       1.0  0.15976  0.37205  0.97909  1.0000
  O   O97       1.0  0.39782  0.87752  0.26267  1.0000
  O   O98       1.0  0.39805  0.87737  0.76275  1.0000
  O   O99       1.0  0.64795  0.37744  0.26274  1.0000
  O   O100      1.0  0.64788  0.37762  0.76273  1.0000
  O   O101      1.0  0.89790  0.87751  0.26266  1.0000
  O   O102      1.0  0.89799  0.87752  0.76273  1.0000
  O   O103      1.0  0.14795  0.37738  0.26270  1.0000
  O   O104      1.0  0.14804  0.37743  0.76275  1.0000
  O   O105      1.0  0.10272  0.12336  0.01274  1.0000
  O   O106      1.0  0.10274  0.12338  0.51275  1.0000
  O   O107      1.0  0.35282  0.62337  0.01267  1.0000
  O   O108      1.0  0.35282  0.62332  0.51267  1.0000
  O   O109      1.0  0.60269  0.12340  0.01275  1.0000
  O   O110      1.0  0.60277  0.12326  0.51274  1.0000
  O   O111      1.0  0.85275  0.62333  0.01271  1.0000
  O   O112      1.0  0.85268  0.62349  0.51274  1.0000
