data_image0
_chemical_formula_structural       Ba32In16Ga16O80
_chemical_formula_sum              "Ba32 In16 Ga16 O80"
_cell_length_a       11.9074
_cell_length_b       12.31
_cell_length_c       15.628
_cell_angle_alpha    89.9992
_cell_angle_beta     90
_cell_angle_gamma    90.0007

_space_group_name_H-M_alt    "P 1"
_space_group_IT_number       1

loop_
  _space_group_symop_operation_xyz
  'x, y, z'

loop_
  _atom_site_type_symbol
  _atom_site_label
  _atom_site_symmetry_multiplicity
  _atom_site_fract_x
  _atom_site_fract_y
  _atom_site_fract_z
  _atom_site_occupancy
  Ba  Ba1       1.0  0.25719  0.00313  0.38107  1.0000
  Ba  Ba2       1.0  0.75716  0.00317  0.38105  1.0000
  Ba  Ba3       1.0  0.25721  0.50319  0.38108  1.0000
  Ba  Ba4       1.0  0.50723  0.25318  0.88107  1.0000
  Ba  Ba5       1.0  0.75717  0.50316  0.38108  1.0000
  Ba  Ba6       1.0  0.00717  0.25318  0.88108  1.0000
  Ba  Ba7       1.0  0.50719  0.75313  0.88110  1.0000
  Ba  Ba8       1.0  0.00723  0.75312  0.88105  1.0000
  Ba  Ba9       1.0  0.00716  0.24769  0.11950  1.0000
  Ba  Ba10      1.0  0.50717  0.24765  0.11953  1.0000
  Ba  Ba11      1.0  0.00719  0.74769  0.11953  1.0000
  Ba  Ba12      1.0  0.25721  0.49762  0.61952  1.0000
  Ba  Ba13      1.0  0.50718  0.74768  0.11955  1.0000
  Ba  Ba14      1.0  0.75718  0.49767  0.61951  1.0000
  Ba  Ba15      1.0  0.25715  0.99765  0.61952  1.0000
  Ba  Ba16      1.0  0.75720  0.99766  0.61953  1.0000
  Ba  Ba17      1.0  0.25719  0.00317  0.11950  1.0000
  Ba  Ba18      1.0  0.75719  0.00318  0.11955  1.0000
  Ba  Ba19      1.0  0.25716  0.50313  0.11957  1.0000
  Ba  Ba20      1.0  0.50718  0.25314  0.61958  1.0000
  Ba  Ba21      1.0  0.75722  0.50316  0.11955  1.0000
  Ba  Ba22      1.0  0.00717  0.25320  0.61954  1.0000
  Ba  Ba23      1.0  0.50717  0.75314  0.61956  1.0000
  Ba  Ba24      1.0  0.00714  0.75315  0.61954  1.0000
  Ba  Ba25      1.0  0.00719  0.24761  0.38110  1.0000
  Ba  Ba26      1.0  0.50722  0.24767  0.38110  1.0000
  Ba  Ba27      1.0  0.00718  0.74768  0.38110  1.0000
  Ba  Ba28      1.0  0.25725  0.49769  0.88109  1.0000
  Ba  Ba29      1.0  0.50716  0.74768  0.38112  1.0000
  Ba  Ba30      1.0  0.75719  0.49771  0.88117  1.0000
  Ba  Ba31      1.0  0.25720  0.99765  0.88112  1.0000
  Ba  Ba32      1.0  0.75717  0.99766  0.88109  1.0000
  In  In1       1.0  0.00746  0.00041  0.50031  1.0000
  In  In2       1.0  0.50749  0.00042  0.50035  1.0000
  In  In3       1.0  0.00750  0.50042  0.50029  1.0000
  In  In4       1.0  0.25751  0.25041  0.00030  1.0000
  In  In5       1.0  0.50745  0.50039  0.50037  1.0000
  In  In6       1.0  0.75746  0.25040  0.00031  1.0000
  In  In7       1.0  0.25750  0.75039  0.00036  1.0000
  In  In8       1.0  0.75752  0.75041  0.00035  1.0000
  In  In9       1.0  0.00744  0.00039  0.00033  1.0000
  In  In10      1.0  0.50749  0.00045  0.00033  1.0000
  In  In11      1.0  0.00752  0.50041  0.00035  1.0000
  In  In12      1.0  0.25747  0.25041  0.50033  1.0000
  In  In13      1.0  0.50748  0.50043  0.00038  1.0000
  In  In14      1.0  0.75750  0.25046  0.50038  1.0000
  In  In15      1.0  0.25746  0.75039  0.50035  1.0000
  In  In16      1.0  0.75745  0.75046  0.50034  1.0000
  Ga  Ga1       1.0  0.25683  0.21774  0.75029  1.0000
  Ga  Ga2       1.0  0.75684  0.21779  0.75029  1.0000
  Ga  Ga3       1.0  0.25686  0.71777  0.75027  1.0000
  Ga  Ga4       1.0  0.50685  0.46777  0.25027  1.0000
  Ga  Ga5       1.0  0.75681  0.71773  0.75029  1.0000
  Ga  Ga6       1.0  0.00682  0.46778  0.25027  1.0000
  Ga  Ga7       1.0  0.50681  0.96776  0.25023  1.0000
  Ga  Ga8       1.0  0.00678  0.96778  0.25025  1.0000
  Ga  Ga9       1.0  0.00683  0.03291  0.75028  1.0000
  Ga  Ga10      1.0  0.50683  0.03294  0.75028  1.0000
  Ga  Ga11      1.0  0.00680  0.53293  0.75028  1.0000
  Ga  Ga12      1.0  0.25675  0.28297  0.25028  1.0000
  Ga  Ga13      1.0  0.50680  0.53293  0.75031  1.0000
  Ga  Ga14      1.0  0.75678  0.28295  0.25027  1.0000
  Ga  Ga15      1.0  0.25679  0.78297  0.25026  1.0000
  Ga  Ga16      1.0  0.75681  0.78291  0.25027  1.0000
  O   O1        1.0  0.88240  0.12527  0.51089  1.0000
  O   O2        1.0  0.38239  0.12524  0.51092  1.0000
  O   O3        1.0  0.88240  0.62523  0.51088  1.0000
  O   O4        1.0  0.13238  0.37529  0.01087  1.0000
  O   O5        1.0  0.38239  0.62525  0.51090  1.0000
  O   O6        1.0  0.63239  0.37529  0.01090  1.0000
  O   O7        1.0  0.13244  0.87531  0.01090  1.0000
  O   O8        1.0  0.63239  0.87527  0.01088  1.0000
  O   O9        1.0  0.13242  0.12556  0.98976  1.0000
  O   O10       1.0  0.63239  0.12560  0.98974  1.0000
  O   O11       1.0  0.13239  0.62557  0.98978  1.0000
  O   O12       1.0  0.38238  0.37558  0.48977  1.0000
  O   O13       1.0  0.63239  0.62557  0.98978  1.0000
  O   O14       1.0  0.88237  0.37553  0.48973  1.0000
  O   O15       1.0  0.38236  0.87555  0.48979  1.0000
  O   O16       1.0  0.88241  0.87551  0.48974  1.0000
  O   O17       1.0  0.13239  0.87531  0.48977  1.0000
  O   O18       1.0  0.63238  0.87527  0.48975  1.0000
  O   O19       1.0  0.13239  0.37528  0.48975  1.0000
  O   O20       1.0  0.38246  0.12531  0.98977  1.0000
  O   O21       1.0  0.63241  0.37530  0.48976  1.0000
  O   O22       1.0  0.88240  0.12532  0.98973  1.0000
  O   O23       1.0  0.38242  0.62528  0.98982  1.0000
  O   O24       1.0  0.88240  0.62532  0.98974  1.0000
  O   O25       1.0  0.13237  0.12562  0.51089  1.0000
  O   O26       1.0  0.63236  0.12560  0.51091  1.0000
  O   O27       1.0  0.13235  0.62563  0.51089  1.0000
  O   O28       1.0  0.38236  0.37556  0.01089  1.0000
  O   O29       1.0  0.63237  0.62561  0.51092  1.0000
  O   O30       1.0  0.88236  0.37559  0.01085  1.0000
  O   O31       1.0  0.38237  0.87557  0.01090  1.0000
  O   O32       1.0  0.88238  0.87561  0.01087  1.0000
  O   O33       1.0  0.00841  0.03459  0.35473  1.0000
  O   O34       1.0  0.50850  0.03458  0.35473  1.0000
  O   O35       1.0  0.00849  0.53466  0.35471  1.0000
  O   O36       1.0  0.25853  0.28460  0.85473  1.0000
  O   O37       1.0  0.50844  0.53457  0.35475  1.0000
  O   O38       1.0  0.75841  0.28464  0.85475  1.0000
  O   O39       1.0  0.25850  0.78454  0.85475  1.0000
  O   O40       1.0  0.75849  0.78459  0.85472  1.0000
  O   O41       1.0  0.25850  0.21618  0.14586  1.0000
  O   O42       1.0  0.75850  0.21618  0.14584  1.0000
  O   O43       1.0  0.25844  0.71615  0.14587  1.0000
  O   O44       1.0  0.50853  0.46614  0.64587  1.0000
  O   O45       1.0  0.75849  0.71617  0.14586  1.0000
  O   O46       1.0  0.00850  0.46615  0.64583  1.0000
  O   O47       1.0  0.50848  0.96614  0.64587  1.0000
  O   O48       1.0  0.00845  0.96612  0.64585  1.0000
  O   O49       1.0  0.00845  0.03468  0.14586  1.0000
  O   O50       1.0  0.50856  0.03465  0.14585  1.0000
  O   O51       1.0  0.00846  0.53466  0.14586  1.0000
  O   O52       1.0  0.25850  0.28464  0.64585  1.0000
  O   O53       1.0  0.50850  0.53467  0.14589  1.0000
  O   O54       1.0  0.75849  0.28465  0.64586  1.0000
  O   O55       1.0  0.25846  0.78465  0.64586  1.0000
  O   O56       1.0  0.75847  0.78464  0.64587  1.0000
  O   O57       1.0  0.25845  0.21618  0.35475  1.0000
  O   O58       1.0  0.75848  0.21620  0.35476  1.0000
  O   O59       1.0  0.25848  0.71626  0.35477  1.0000
  O   O60       1.0  0.50848  0.46624  0.85480  1.0000
  O   O61       1.0  0.75850  0.71619  0.35478  1.0000
  O   O62       1.0  0.00845  0.46619  0.85474  1.0000
  O   O63       1.0  0.50848  0.96616  0.85473  1.0000
  O   O64       1.0  0.00852  0.96618  0.85475  1.0000
  O   O65       1.0  0.12959  0.37250  0.25030  1.0000
  O   O66       1.0  0.62963  0.37249  0.25028  1.0000
  O   O67       1.0  0.12963  0.87256  0.25029  1.0000
  O   O68       1.0  0.37966  0.62250  0.75024  1.0000
  O   O69       1.0  0.62962  0.87246  0.25030  1.0000
  O   O70       1.0  0.87962  0.62247  0.75027  1.0000
  O   O71       1.0  0.37967  0.12251  0.75029  1.0000
  O   O72       1.0  0.87965  0.12249  0.75031  1.0000
  O   O73       1.0  0.12957  0.12830  0.75030  1.0000
  O   O74       1.0  0.62961  0.12831  0.75027  1.0000
  O   O75       1.0  0.12960  0.62829  0.75032  1.0000
  O   O76       1.0  0.37958  0.37828  0.25033  1.0000
  O   O77       1.0  0.62953  0.62831  0.75026  1.0000
  O   O78       1.0  0.87957  0.37829  0.25027  1.0000
  O   O79       1.0  0.37955  0.87834  0.25026  1.0000
  O   O80       1.0  0.87956  0.87831  0.25028  1.0000
