data_image0
_chemical_formula_structural       Ti24Ga48O120
_chemical_formula_sum              "Ti24 Ga48 O120"
_cell_length_a       14.6996
_cell_length_b       15.6756
_cell_length_c       9.8858
_cell_angle_alpha    89.9967
_cell_angle_beta     89.9969
_cell_angle_gamma    110.583

_space_group_name_H-M_alt    "P 1"
_space_group_IT_number       1

loop_
  _space_group_symop_operation_xyz
  'x, y, z'

loop_
  _atom_site_type_symbol
  _atom_site_label
  _atom_site_symmetry_multiplicity
  _atom_site_fract_x
  _atom_site_fract_y
  _atom_site_fract_z
  _atom_site_occupancy
  Ti  Ti1       1.0  0.04609  0.12114  0.24972  1.0000
  Ti  Ti2       1.0  0.04610  0.45448  0.24969  1.0000
  Ti  Ti3       1.0  0.04608  0.78782  0.24971  1.0000
  Ti  Ti4       1.0  0.54608  0.12116  0.24969  1.0000
  Ti  Ti5       1.0  0.54608  0.45450  0.24971  1.0000
  Ti  Ti6       1.0  0.54607  0.78784  0.24970  1.0000
  Ti  Ti7       1.0  0.21756  0.24652  0.06166  1.0000
  Ti  Ti8       1.0  0.21755  0.57986  0.06163  1.0000
  Ti  Ti9       1.0  0.21755  0.91319  0.06164  1.0000
  Ti  Ti10      1.0  0.71757  0.24654  0.06167  1.0000
  Ti  Ti11      1.0  0.71756  0.57987  0.06169  1.0000
  Ti  Ti12      1.0  0.71754  0.91319  0.06166  1.0000
  Ti  Ti13      1.0  0.28339  0.08742  0.56160  1.0000
  Ti  Ti14      1.0  0.28339  0.42074  0.56159  1.0000
  Ti  Ti15      1.0  0.28339  0.75409  0.56156  1.0000
  Ti  Ti16      1.0  0.78339  0.08742  0.56159  1.0000
  Ti  Ti17      1.0  0.78340  0.42076  0.56158  1.0000
  Ti  Ti18      1.0  0.78338  0.75409  0.56162  1.0000
  Ti  Ti19      1.0  0.45482  0.21290  0.74971  1.0000
  Ti  Ti20      1.0  0.45481  0.54622  0.74969  1.0000
  Ti  Ti21      1.0  0.45480  0.87957  0.74968  1.0000
  Ti  Ti22      1.0  0.95481  0.21289  0.74967  1.0000
  Ti  Ti23      1.0  0.95482  0.54623  0.74967  1.0000
  Ti  Ti24      1.0  0.95480  0.87955  0.74969  1.0000
  Ga  Ga1       1.0  0.03552  0.09274  0.56300  1.0000
  Ga  Ga2       1.0  0.03552  0.42608  0.56296  1.0000
  Ga  Ga3       1.0  0.03551  0.75942  0.56297  1.0000
  Ga  Ga4       1.0  0.53552  0.09276  0.56295  1.0000
  Ga  Ga5       1.0  0.53552  0.42610  0.56300  1.0000
  Ga  Ga6       1.0  0.53551  0.75943  0.56297  1.0000
  Ga  Ga7       1.0  0.03467  0.09208  0.93507  1.0000
  Ga  Ga8       1.0  0.03468  0.42541  0.93506  1.0000
  Ga  Ga9       1.0  0.03468  0.75875  0.93506  1.0000
  Ga  Ga10      1.0  0.53469  0.09209  0.93506  1.0000
  Ga  Ga11      1.0  0.53469  0.42543  0.93508  1.0000
  Ga  Ga12      1.0  0.53465  0.75875  0.93506  1.0000
  Ga  Ga13      1.0  0.20289  0.20747  0.75071  1.0000
  Ga  Ga14      1.0  0.20289  0.54080  0.75064  1.0000
  Ga  Ga15      1.0  0.20288  0.87413  0.75067  1.0000
  Ga  Ga16      1.0  0.70289  0.20749  0.75069  1.0000
  Ga  Ga17      1.0  0.70290  0.54082  0.75073  1.0000
  Ga  Ga18      1.0  0.70288  0.87414  0.75070  1.0000
  Ga  Ga19      1.0  0.21622  0.24255  0.43445  1.0000
  Ga  Ga20      1.0  0.21624  0.57590  0.43441  1.0000
  Ga  Ga21      1.0  0.21622  0.90924  0.43443  1.0000
  Ga  Ga22      1.0  0.71623  0.24257  0.43447  1.0000
  Ga  Ga23      1.0  0.71622  0.57590  0.43449  1.0000
  Ga  Ga24      1.0  0.71621  0.90924  0.43446  1.0000
  Ga  Ga25      1.0  0.28470  0.09135  0.93437  1.0000
  Ga  Ga26      1.0  0.28468  0.42468  0.93435  1.0000
  Ga  Ga27      1.0  0.28467  0.75801  0.93433  1.0000
  Ga  Ga28      1.0  0.78467  0.09134  0.93436  1.0000
  Ga  Ga29      1.0  0.78468  0.42468  0.93436  1.0000
  Ga  Ga30      1.0  0.78466  0.75801  0.93439  1.0000
  Ga  Ga31      1.0  0.29807  0.12643  0.25058  1.0000
  Ga  Ga32      1.0  0.29806  0.45976  0.25058  1.0000
  Ga  Ga33      1.0  0.29806  0.79311  0.25054  1.0000
  Ga  Ga34      1.0  0.79807  0.12644  0.25058  1.0000
  Ga  Ga35      1.0  0.79808  0.45979  0.25058  1.0000
  Ga  Ga36      1.0  0.79805  0.79310  0.25060  1.0000
  Ga  Ga37      1.0  0.46543  0.24132  0.06288  1.0000
  Ga  Ga38      1.0  0.46541  0.57466  0.06286  1.0000
  Ga  Ga39      1.0  0.46543  0.90801  0.06284  1.0000
  Ga  Ga40      1.0  0.96543  0.24132  0.06284  1.0000
  Ga  Ga41      1.0  0.96544  0.57467  0.06286  1.0000
  Ga  Ga42      1.0  0.96541  0.90798  0.06287  1.0000
  Ga  Ga43      1.0  0.46622  0.24193  0.43509  1.0000
  Ga  Ga44      1.0  0.46622  0.57527  0.43508  1.0000
  Ga  Ga45      1.0  0.46621  0.90860  0.43508  1.0000
  Ga  Ga46      1.0  0.96623  0.24192  0.43507  1.0000
  Ga  Ga47      1.0  0.96622  0.57526  0.43506  1.0000
  Ga  Ga48      1.0  0.96620  0.90858  0.43509  1.0000
  O   O1        1.0  0.01399  0.03290  0.11680  1.0000
  O   O2        1.0  0.01401  0.36623  0.11682  1.0000
  O   O3        1.0  0.01401  0.69958  0.11683  1.0000
  O   O4        1.0  0.51400  0.03293  0.11681  1.0000
  O   O5        1.0  0.51398  0.36624  0.11685  1.0000
  O   O6        1.0  0.51398  0.69958  0.11682  1.0000
  O   O7        1.0  0.01318  0.03215  0.38164  1.0000
  O   O8        1.0  0.01320  0.36550  0.38163  1.0000
  O   O9        1.0  0.01316  0.69883  0.38162  1.0000
  O   O10       1.0  0.51318  0.03219  0.38161  1.0000
  O   O11       1.0  0.51318  0.36552  0.38166  1.0000
  O   O12       1.0  0.51316  0.69886  0.38164  1.0000
  O   O13       1.0  0.05848  0.16199  0.75081  1.0000
  O   O14       1.0  0.05847  0.49531  0.75078  1.0000
  O   O15       1.0  0.05847  0.82865  0.75080  1.0000
  O   O16       1.0  0.55850  0.16201  0.75080  1.0000
  O   O17       1.0  0.55850  0.49533  0.75082  1.0000
  O   O18       1.0  0.55847  0.82867  0.75080  1.0000
  O   O19       1.0  0.07924  0.20802  0.07368  1.0000
  O   O20       1.0  0.07925  0.54136  0.07369  1.0000
  O   O21       1.0  0.07923  0.87469  0.07368  1.0000
  O   O22       1.0  0.57926  0.20805  0.07370  1.0000
  O   O23       1.0  0.57923  0.54135  0.07370  1.0000
  O   O24       1.0  0.57924  0.87471  0.07368  1.0000
  O   O25       1.0  0.07771  0.20431  0.43230  1.0000
  O   O26       1.0  0.07772  0.53767  0.43227  1.0000
  O   O27       1.0  0.07769  0.87100  0.43228  1.0000
  O   O28       1.0  0.57771  0.20434  0.43227  1.0000
  O   O29       1.0  0.57770  0.53769  0.43228  1.0000
  O   O30       1.0  0.57770  0.87101  0.43229  1.0000
  O   O31       1.0  0.17317  0.12452  0.58189  1.0000
  O   O32       1.0  0.17317  0.45785  0.58187  1.0000
  O   O33       1.0  0.17317  0.79120  0.58183  1.0000
  O   O34       1.0  0.67318  0.12456  0.58183  1.0000
  O   O35       1.0  0.67320  0.45791  0.58182  1.0000
  O   O36       1.0  0.67316  0.79122  0.58186  1.0000
  O   O37       1.0  0.17456  0.12942  0.92507  1.0000
  O   O38       1.0  0.17456  0.46276  0.92505  1.0000
  O   O39       1.0  0.17455  0.79610  0.92508  1.0000
  O   O40       1.0  0.67458  0.12945  0.92509  1.0000
  O   O41       1.0  0.67457  0.46276  0.92510  1.0000
  O   O42       1.0  0.67454  0.79609  0.92508  1.0000
  O   O43       1.0  0.18734  0.17226  0.24945  1.0000
  O   O44       1.0  0.18735  0.50561  0.24946  1.0000
  O   O45       1.0  0.18734  0.83894  0.24946  1.0000
  O   O46       1.0  0.68734  0.17228  0.24947  1.0000
  O   O47       1.0  0.68734  0.50561  0.24947  1.0000
  O   O48       1.0  0.68733  0.83895  0.24947  1.0000
  O   O49       1.0  0.24026  0.30145  0.61608  1.0000
  O   O50       1.0  0.24024  0.63479  0.61605  1.0000
  O   O51       1.0  0.24025  0.96813  0.61606  1.0000
  O   O52       1.0  0.74023  0.30148  0.61606  1.0000
  O   O53       1.0  0.74023  0.63480  0.61611  1.0000
  O   O54       1.0  0.74022  0.96813  0.61607  1.0000
  O   O55       1.0  0.23944  0.30006  0.88536  1.0000
  O   O56       1.0  0.23943  0.63338  0.88532  1.0000
  O   O57       1.0  0.23944  0.96673  0.88535  1.0000
  O   O58       1.0  0.73946  0.30007  0.88536  1.0000
  O   O59       1.0  0.73944  0.63340  0.88540  1.0000
  O   O60       1.0  0.73943  0.96673  0.88536  1.0000
  O   O61       1.0  0.26154  0.03387  0.38532  1.0000
  O   O62       1.0  0.26156  0.36720  0.38534  1.0000
  O   O63       1.0  0.26156  0.70054  0.38529  1.0000
  O   O64       1.0  0.76153  0.03388  0.38534  1.0000
  O   O65       1.0  0.76155  0.36722  0.38533  1.0000
  O   O66       1.0  0.76153  0.70054  0.38537  1.0000
  O   O67       1.0  0.26074  0.03251  0.11600  1.0000
  O   O68       1.0  0.26071  0.36584  0.11599  1.0000
  O   O69       1.0  0.26071  0.69918  0.11596  1.0000
  O   O70       1.0  0.76073  0.03253  0.11599  1.0000
  O   O71       1.0  0.76074  0.36587  0.11598  1.0000
  O   O72       1.0  0.76069  0.69919  0.11600  1.0000
  O   O73       1.0  0.31360  0.16167  0.74949  1.0000
  O   O74       1.0  0.31358  0.49501  0.74948  1.0000
  O   O75       1.0  0.31357  0.82834  0.74947  1.0000
  O   O76       1.0  0.81358  0.16169  0.74947  1.0000
  O   O77       1.0  0.81358  0.49502  0.74949  1.0000
  O   O78       1.0  0.81357  0.82834  0.74948  1.0000
  O   O79       1.0  0.32781  0.20947  0.08186  1.0000
  O   O80       1.0  0.32779  0.54281  0.08183  1.0000
  O   O81       1.0  0.32780  0.87615  0.08184  1.0000
  O   O82       1.0  0.82781  0.20949  0.08188  1.0000
  O   O83       1.0  0.82781  0.54283  0.08188  1.0000
  O   O84       1.0  0.82779  0.87613  0.08187  1.0000
  O   O85       1.0  0.32636  0.20453  0.42507  1.0000
  O   O86       1.0  0.32635  0.53785  0.42507  1.0000
  O   O87       1.0  0.32634  0.87121  0.42507  1.0000
  O   O88       1.0  0.82636  0.20455  0.42507  1.0000
  O   O89       1.0  0.82636  0.53788  0.42504  1.0000
  O   O90       1.0  0.82634  0.87120  0.42507  1.0000
  O   O91       1.0  0.42172  0.12607  0.57369  1.0000
  O   O92       1.0  0.42172  0.45939  0.57372  1.0000
  O   O93       1.0  0.42172  0.79273  0.57369  1.0000
  O   O94       1.0  0.92172  0.12605  0.57369  1.0000
  O   O95       1.0  0.92172  0.45939  0.57366  1.0000
  O   O96       1.0  0.92171  0.79273  0.57368  1.0000
  O   O97       1.0  0.42324  0.12971  0.93226  1.0000
  O   O98       1.0  0.42322  0.46303  0.93225  1.0000
  O   O99       1.0  0.42321  0.79638  0.93227  1.0000
  O   O100      1.0  0.92321  0.12970  0.93224  1.0000
  O   O101      1.0  0.92322  0.46305  0.93226  1.0000
  O   O102      1.0  0.92320  0.79636  0.93227  1.0000
  O   O103      1.0  0.44243  0.17206  0.25080  1.0000
  O   O104      1.0  0.44242  0.50539  0.25080  1.0000
  O   O105      1.0  0.44242  0.83873  0.25079  1.0000
  O   O106      1.0  0.94244  0.17204  0.25082  1.0000
  O   O107      1.0  0.94244  0.50539  0.25081  1.0000
  O   O108      1.0  0.94241  0.83870  0.25080  1.0000
  O   O109      1.0  0.48696  0.30117  0.61688  1.0000
  O   O110      1.0  0.48693  0.63449  0.61686  1.0000
  O   O111      1.0  0.48693  0.96783  0.61683  1.0000
  O   O112      1.0  0.98694  0.30115  0.61683  1.0000
  O   O113      1.0  0.98694  0.63449  0.61685  1.0000
  O   O114      1.0  0.98693  0.96781  0.61685  1.0000
  O   O115      1.0  0.48776  0.30189  0.88161  1.0000
  O   O116      1.0  0.48776  0.63522  0.88158  1.0000
  O   O117      1.0  0.48776  0.96856  0.88156  1.0000
  O   O118      1.0  0.98774  0.30188  0.88156  1.0000
  O   O119      1.0  0.98777  0.63521  0.88156  1.0000
  O   O120      1.0  0.98774  0.96855  0.88157  1.0000
