data_image0
_chemical_formula_structural       Mg16Bi32O80
_chemical_formula_sum              "Mg16 Bi32 O80"
_cell_length_a       10.7089
_cell_length_b       15.4965
_cell_length_c       11.2911
_cell_angle_alpha    89.9995
_cell_angle_beta     89.9984
_cell_angle_gamma    88.8388

_space_group_name_H-M_alt    "P 1"
_space_group_IT_number       1

loop_
  _space_group_symop_operation_xyz
  'x, y, z'

loop_
  _atom_site_type_symbol
  _atom_site_label
  _atom_site_symmetry_multiplicity
  _atom_site_fract_x
  _atom_site_fract_y
  _atom_site_fract_z
  _atom_site_occupancy
  Mg  Mg1       1.0  0.24494  0.07199  0.90718  1.0000
  Mg  Mg2       1.0  0.74499  0.07197  0.90716  1.0000
  Mg  Mg3       1.0  0.49496  0.57201  0.90716  1.0000
  Mg  Mg4       1.0  0.99499  0.57198  0.90721  1.0000
  Mg  Mg5       1.0  0.00585  0.42863  0.09358  1.0000
  Mg  Mg6       1.0  0.50583  0.42864  0.09354  1.0000
  Mg  Mg7       1.0  0.25587  0.92864  0.09356  1.0000
  Mg  Mg8       1.0  0.75582  0.92865  0.09359  1.0000
  Mg  Mg9       1.0  0.38085  0.17866  0.40719  1.0000
  Mg  Mg10      1.0  0.88084  0.17865  0.40718  1.0000
  Mg  Mg11      1.0  0.63089  0.67866  0.40719  1.0000
  Mg  Mg12      1.0  0.13087  0.67867  0.40721  1.0000
  Mg  Mg13      1.0  0.87002  0.32202  0.59357  1.0000
  Mg  Mg14      1.0  0.36999  0.32200  0.59356  1.0000
  Mg  Mg15      1.0  0.11998  0.82199  0.59358  1.0000
  Mg  Mg16      1.0  0.62000  0.82201  0.59357  1.0000
  Bi  Bi1       1.0  0.12676  0.48206  0.58764  1.0000
  Bi  Bi2       1.0  0.62677  0.48205  0.58761  1.0000
  Bi  Bi3       1.0  0.37672  0.98204  0.58762  1.0000
  Bi  Bi4       1.0  0.87673  0.98202  0.58757  1.0000
  Bi  Bi5       1.0  0.12413  0.01861  0.41310  1.0000
  Bi  Bi6       1.0  0.62414  0.01860  0.41315  1.0000
  Bi  Bi7       1.0  0.37416  0.51863  0.41314  1.0000
  Bi  Bi8       1.0  0.87416  0.51863  0.41315  1.0000
  Bi  Bi9       1.0  0.24906  0.26857  0.08763  1.0000
  Bi  Bi10      1.0  0.74905  0.26859  0.08762  1.0000
  Bi  Bi11      1.0  0.49906  0.76862  0.08764  1.0000
  Bi  Bi12      1.0  0.99905  0.76860  0.08765  1.0000
  Bi  Bi13      1.0  0.00171  0.23201  0.91314  1.0000
  Bi  Bi14      1.0  0.50171  0.23202  0.91315  1.0000
  Bi  Bi15      1.0  0.25166  0.73204  0.91318  1.0000
  Bi  Bi16      1.0  0.75167  0.73203  0.91317  1.0000
  Bi  Bi17      1.0  0.00679  0.05643  0.13817  1.0000
  Bi  Bi18      1.0  0.50680  0.05643  0.13820  1.0000
  Bi  Bi19      1.0  0.25682  0.55647  0.13821  1.0000
  Bi  Bi20      1.0  0.75681  0.55643  0.13822  1.0000
  Bi  Bi21      1.0  0.24400  0.44418  0.86262  1.0000
  Bi  Bi22      1.0  0.74403  0.44423  0.86262  1.0000
  Bi  Bi23      1.0  0.49399  0.94418  0.86263  1.0000
  Bi  Bi24      1.0  0.99402  0.94418  0.86258  1.0000
  Bi  Bi25      1.0  0.13182  0.30648  0.36263  1.0000
  Bi  Bi26      1.0  0.63184  0.30645  0.36263  1.0000
  Bi  Bi27      1.0  0.38182  0.80644  0.36262  1.0000
  Bi  Bi28      1.0  0.88181  0.80645  0.36262  1.0000
  Bi  Bi29      1.0  0.11902  0.19418  0.63818  1.0000
  Bi  Bi30      1.0  0.61900  0.19417  0.63817  1.0000
  Bi  Bi31      1.0  0.36903  0.69421  0.63824  1.0000
  Bi  Bi32      1.0  0.86903  0.69422  0.63824  1.0000
  O   O1        1.0  0.08620  0.18791  0.07988  1.0000
  O   O2        1.0  0.58616  0.18797  0.07991  1.0000
  O   O3        1.0  0.33613  0.68800  0.07997  1.0000
  O   O4        1.0  0.83611  0.68797  0.07995  1.0000
  O   O5        1.0  0.34001  0.16880  0.98315  1.0000
  O   O6        1.0  0.84002  0.16879  0.98317  1.0000
  O   O7        1.0  0.58995  0.66884  0.98313  1.0000
  O   O8        1.0  0.08998  0.66883  0.98317  1.0000
  O   O9        1.0  0.16071  0.37357  0.16709  1.0000
  O   O10       1.0  0.66072  0.37360  0.16707  1.0000
  O   O11       1.0  0.41076  0.87363  0.16712  1.0000
  O   O12       1.0  0.91072  0.87364  0.16711  1.0000
  O   O13       1.0  0.25457  0.25578  0.49082  1.0000
  O   O14       1.0  0.75458  0.25579  0.49082  1.0000
  O   O15       1.0  0.50458  0.75579  0.49083  1.0000
  O   O16       1.0  0.00456  0.75577  0.49082  1.0000
  O   O17       1.0  0.29204  0.23215  0.26119  1.0000
  O   O18       1.0  0.79204  0.23215  0.26117  1.0000
  O   O19       1.0  0.54203  0.73213  0.26117  1.0000
  O   O20       1.0  0.04206  0.73218  0.26118  1.0000
  O   O21       1.0  0.91710  0.48219  0.23961  1.0000
  O   O22       1.0  0.41709  0.48220  0.23959  1.0000
  O   O23       1.0  0.16710  0.98218  0.23957  1.0000
  O   O24       1.0  0.66705  0.98216  0.23961  1.0000
  O   O25       1.0  0.96514  0.41882  0.51760  1.0000
  O   O26       1.0  0.46510  0.41883  0.51763  1.0000
  O   O27       1.0  0.21509  0.91884  0.51761  1.0000
  O   O28       1.0  0.71511  0.91879  0.51756  1.0000
  O   O29       1.0  0.28580  0.08183  0.48312  1.0000
  O   O30       1.0  0.78579  0.08181  0.48314  1.0000
  O   O31       1.0  0.53584  0.58183  0.48309  1.0000
  O   O32       1.0  0.03584  0.58184  0.48318  1.0000
  O   O33       1.0  0.99628  0.24485  0.50998  1.0000
  O   O34       1.0  0.49626  0.24488  0.50995  1.0000
  O   O35       1.0  0.24628  0.74486  0.50998  1.0000
  O   O36       1.0  0.74628  0.74485  0.51001  1.0000
  O   O37       1.0  0.03965  0.06266  0.57990  1.0000
  O   O38       1.0  0.53963  0.06270  0.57990  1.0000
  O   O39       1.0  0.28966  0.56272  0.57992  1.0000
  O   O40       1.0  0.78964  0.56272  0.57992  1.0000
  O   O41       1.0  0.95878  0.26847  0.73959  1.0000
  O   O42       1.0  0.45869  0.26839  0.73957  1.0000
  O   O43       1.0  0.20877  0.76853  0.73961  1.0000
  O   O44       1.0  0.70872  0.76847  0.73964  1.0000
  O   O45       1.0  0.16456  0.31266  0.92088  1.0000
  O   O46       1.0  0.66453  0.31270  0.92087  1.0000
  O   O47       1.0  0.41450  0.81272  0.92091  1.0000
  O   O48       1.0  0.91454  0.81267  0.92089  1.0000
  O   O49       1.0  0.21128  0.43798  0.42088  1.0000
  O   O50       1.0  0.71128  0.43798  0.42084  1.0000
  O   O51       1.0  0.46123  0.93797  0.42087  1.0000
  O   O52       1.0  0.96129  0.93791  0.42086  1.0000
  O   O53       1.0  0.33372  0.01844  0.76116  1.0000
  O   O54       1.0  0.83382  0.01847  0.76112  1.0000
  O   O55       1.0  0.58379  0.51851  0.76113  1.0000
  O   O56       1.0  0.08378  0.51849  0.76120  1.0000
  O   O57       1.0  0.12126  0.49486  0.99083  1.0000
  O   O58       1.0  0.62126  0.49489  0.99080  1.0000
  O   O59       1.0  0.37126  0.99486  0.99083  1.0000
  O   O60       1.0  0.87123  0.99482  0.99076  1.0000
  O   O61       1.0  0.12954  0.00575  0.00993  1.0000
  O   O62       1.0  0.62959  0.00579  0.00996  1.0000
  O   O63       1.0  0.37956  0.50581  0.00995  1.0000
  O   O64       1.0  0.87957  0.50577  0.00998  1.0000
  O   O65       1.0  0.09003  0.12699  0.83367  1.0000
  O   O66       1.0  0.59012  0.12703  0.83370  1.0000
  O   O67       1.0  0.33999  0.62704  0.83372  1.0000
  O   O68       1.0  0.84003  0.62702  0.83373  1.0000
  O   O69       1.0  0.91076  0.33181  0.01760  1.0000
  O   O70       1.0  0.41073  0.33184  0.01757  1.0000
  O   O71       1.0  0.16070  0.83184  0.01761  1.0000
  O   O72       1.0  0.66072  0.83183  0.01765  1.0000
  O   O73       1.0  0.21513  0.37708  0.66710  1.0000
  O   O74       1.0  0.71513  0.37705  0.66710  1.0000
  O   O75       1.0  0.46513  0.87706  0.66709  1.0000
  O   O76       1.0  0.96505  0.87700  0.66709  1.0000
  O   O77       1.0  0.03571  0.12358  0.33366  1.0000
  O   O78       1.0  0.53582  0.12363  0.33369  1.0000
  O   O79       1.0  0.28577  0.62363  0.33369  1.0000
  O   O80       1.0  0.78584  0.62366  0.33369  1.0000
