data_image0
_chemical_formula_structural       Mg16Nb32O96
_chemical_formula_sum              "Mg16 Nb32 O96"
_cell_length_a       10.1142
_cell_length_b       11.4722
_cell_length_c       14.2779
_cell_angle_alpha    90.0015
_cell_angle_beta     90.0001
_cell_angle_gamma    90.0014

_space_group_name_H-M_alt    "P 1"
_space_group_IT_number       1

loop_
  _space_group_symop_operation_xyz
  'x, y, z'

loop_
  _atom_site_type_symbol
  _atom_site_label
  _atom_site_symmetry_multiplicity
  _atom_site_fract_x
  _atom_site_fract_y
  _atom_site_fract_z
  _atom_site_occupancy
  Mg  Mg1       1.0  0.37557  0.41870  0.00033  1.0000
  Mg  Mg2       1.0  0.37549  0.91872  0.00035  1.0000
  Mg  Mg3       1.0  0.87554  0.41869  0.00034  1.0000
  Mg  Mg4       1.0  0.87548  0.91875  0.00036  1.0000
  Mg  Mg5       1.0  0.12547  0.33213  0.50033  1.0000
  Mg  Mg6       1.0  0.12545  0.83212  0.50038  1.0000
  Mg  Mg7       1.0  0.62554  0.33218  0.50031  1.0000
  Mg  Mg8       1.0  0.62551  0.83216  0.50035  1.0000
  Mg  Mg9       1.0  0.12550  0.08218  0.00029  1.0000
  Mg  Mg10      1.0  0.12547  0.58216  0.00035  1.0000
  Mg  Mg11      1.0  0.62546  0.08214  0.00036  1.0000
  Mg  Mg12      1.0  0.62551  0.58219  0.00036  1.0000
  Mg  Mg13      1.0  0.37549  0.16876  0.50034  1.0000
  Mg  Mg14      1.0  0.37545  0.66871  0.50033  1.0000
  Mg  Mg15      1.0  0.87542  0.16865  0.50034  1.0000
  Mg  Mg16      1.0  0.87544  0.66870  0.50041  1.0000
  Nb  Nb1       1.0  0.37563  0.40791  0.65948  1.0000
  Nb  Nb2       1.0  0.37560  0.90792  0.65947  1.0000
  Nb  Nb3       1.0  0.87566  0.40793  0.65944  1.0000
  Nb  Nb4       1.0  0.87562  0.90788  0.65949  1.0000
  Nb  Nb5       1.0  0.12567  0.34298  0.84122  1.0000
  Nb  Nb6       1.0  0.12562  0.84286  0.84127  1.0000
  Nb  Nb7       1.0  0.62568  0.34295  0.84125  1.0000
  Nb  Nb8       1.0  0.62565  0.84300  0.84123  1.0000
  Nb  Nb9       1.0  0.37539  0.40795  0.34121  1.0000
  Nb  Nb10      1.0  0.37535  0.90796  0.34122  1.0000
  Nb  Nb11      1.0  0.87536  0.40797  0.34124  1.0000
  Nb  Nb12      1.0  0.87536  0.90796  0.34123  1.0000
  Nb  Nb13      1.0  0.12537  0.34297  0.15946  1.0000
  Nb  Nb14      1.0  0.12532  0.84296  0.15947  1.0000
  Nb  Nb15      1.0  0.62542  0.34302  0.15947  1.0000
  Nb  Nb16      1.0  0.62532  0.84302  0.15945  1.0000
  Nb  Nb17      1.0  0.37566  0.15792  0.84119  1.0000
  Nb  Nb18      1.0  0.37568  0.65793  0.84123  1.0000
  Nb  Nb19      1.0  0.87561  0.15794  0.84128  1.0000
  Nb  Nb20      1.0  0.87559  0.65788  0.84130  1.0000
  Nb  Nb21      1.0  0.12561  0.09292  0.65950  1.0000
  Nb  Nb22      1.0  0.12567  0.59295  0.65952  1.0000
  Nb  Nb23      1.0  0.62566  0.09294  0.65946  1.0000
  Nb  Nb24      1.0  0.62566  0.59292  0.65948  1.0000
  Nb  Nb25      1.0  0.37537  0.15795  0.15942  1.0000
  Nb  Nb26      1.0  0.37528  0.65796  0.15948  1.0000
  Nb  Nb27      1.0  0.87533  0.15793  0.15944  1.0000
  Nb  Nb28      1.0  0.87537  0.65794  0.15948  1.0000
  Nb  Nb29      1.0  0.12528  0.09300  0.34121  1.0000
  Nb  Nb30      1.0  0.12532  0.59302  0.34123  1.0000
  Nb  Nb31      1.0  0.62532  0.09300  0.34118  1.0000
  Nb  Nb32      1.0  0.62534  0.59300  0.34122  1.0000
  O   O1        1.0  0.21083  0.18910  0.24437  1.0000
  O   O2        1.0  0.21073  0.68912  0.24441  1.0000
  O   O3        1.0  0.71080  0.18916  0.24436  1.0000
  O   O4        1.0  0.71074  0.68912  0.24439  1.0000
  O   O5        1.0  0.46087  0.06178  0.25629  1.0000
  O   O6        1.0  0.46073  0.56180  0.25636  1.0000
  O   O7        1.0  0.96068  0.06182  0.25631  1.0000
  O   O8        1.0  0.96078  0.56183  0.25630  1.0000
  O   O9        1.0  0.04018  0.18900  0.75636  1.0000
  O   O10       1.0  0.04015  0.68901  0.75633  1.0000
  O   O11       1.0  0.54020  0.18909  0.75629  1.0000
  O   O12       1.0  0.54021  0.68903  0.75633  1.0000
  O   O13       1.0  0.29016  0.06179  0.74442  1.0000
  O   O14       1.0  0.29026  0.56178  0.74438  1.0000
  O   O15       1.0  0.79017  0.06179  0.74443  1.0000
  O   O16       1.0  0.79026  0.56177  0.74437  1.0000
  O   O17       1.0  0.29018  0.31178  0.75629  1.0000
  O   O18       1.0  0.29020  0.81180  0.75633  1.0000
  O   O19       1.0  0.79014  0.31182  0.75628  1.0000
  O   O20       1.0  0.79015  0.81178  0.75635  1.0000
  O   O21       1.0  0.04021  0.43901  0.74439  1.0000
  O   O22       1.0  0.04014  0.93902  0.74446  1.0000
  O   O23       1.0  0.54023  0.43908  0.74441  1.0000
  O   O24       1.0  0.54017  0.93915  0.74443  1.0000
  O   O25       1.0  0.46078  0.31185  0.24437  1.0000
  O   O26       1.0  0.46081  0.81182  0.24439  1.0000
  O   O27       1.0  0.96084  0.31183  0.24439  1.0000
  O   O28       1.0  0.96076  0.81181  0.24441  1.0000
  O   O29       1.0  0.21083  0.43913  0.25630  1.0000
  O   O30       1.0  0.21078  0.93910  0.25627  1.0000
  O   O31       1.0  0.71076  0.43906  0.25633  1.0000
  O   O32       1.0  0.71074  0.93910  0.25632  1.0000
  O   O33       1.0  0.04420  0.19394  0.42187  1.0000
  O   O34       1.0  0.04422  0.69391  0.42193  1.0000
  O   O35       1.0  0.54433  0.19395  0.42187  1.0000
  O   O36       1.0  0.54430  0.69397  0.42188  1.0000
  O   O37       1.0  0.29427  0.05699  0.07882  1.0000
  O   O38       1.0  0.29429  0.55697  0.07883  1.0000
  O   O39       1.0  0.79421  0.05697  0.07881  1.0000
  O   O40       1.0  0.79430  0.55696  0.07884  1.0000
  O   O41       1.0  0.20664  0.19388  0.57884  1.0000
  O   O42       1.0  0.20662  0.69391  0.57884  1.0000
  O   O43       1.0  0.70667  0.19387  0.57878  1.0000
  O   O44       1.0  0.70672  0.69394  0.57886  1.0000
  O   O45       1.0  0.45666  0.05701  0.92190  1.0000
  O   O46       1.0  0.45671  0.55697  0.92187  1.0000
  O   O47       1.0  0.95661  0.05691  0.92191  1.0000
  O   O48       1.0  0.95664  0.55690  0.92192  1.0000
  O   O49       1.0  0.28791  0.30392  0.09507  1.0000
  O   O50       1.0  0.28788  0.80390  0.09508  1.0000
  O   O51       1.0  0.78786  0.30388  0.09503  1.0000
  O   O52       1.0  0.78788  0.80392  0.09512  1.0000
  O   O53       1.0  0.03788  0.44705  0.40559  1.0000
  O   O54       1.0  0.03792  0.94697  0.40563  1.0000
  O   O55       1.0  0.53794  0.44705  0.40560  1.0000
  O   O56       1.0  0.53789  0.94704  0.40560  1.0000
  O   O57       1.0  0.46308  0.30390  0.90554  1.0000
  O   O58       1.0  0.46314  0.80384  0.90562  1.0000
  O   O59       1.0  0.96311  0.30391  0.90557  1.0000
  O   O60       1.0  0.96309  0.80381  0.90569  1.0000
  O   O61       1.0  0.21311  0.44700  0.59507  1.0000
  O   O62       1.0  0.21298  0.94694  0.59515  1.0000
  O   O63       1.0  0.71314  0.44693  0.59510  1.0000
  O   O64       1.0  0.71303  0.94697  0.59512  1.0000
  O   O65       1.0  0.21304  0.19695  0.90549  1.0000
  O   O66       1.0  0.21307  0.69696  0.90557  1.0000
  O   O67       1.0  0.71303  0.19699  0.90563  1.0000
  O   O68       1.0  0.71310  0.69698  0.90566  1.0000
  O   O69       1.0  0.46307  0.05388  0.59513  1.0000
  O   O70       1.0  0.46312  0.55392  0.59509  1.0000
  O   O71       1.0  0.96307  0.05381  0.59515  1.0000
  O   O72       1.0  0.96315  0.55387  0.59512  1.0000
  O   O73       1.0  0.03786  0.19703  0.09508  1.0000
  O   O74       1.0  0.03794  0.69696  0.09513  1.0000
  O   O75       1.0  0.53793  0.19699  0.09513  1.0000
  O   O76       1.0  0.53783  0.69696  0.09514  1.0000
  O   O77       1.0  0.28782  0.05395  0.40554  1.0000
  O   O78       1.0  0.28788  0.55397  0.40554  1.0000
  O   O79       1.0  0.78787  0.05394  0.40558  1.0000
  O   O80       1.0  0.78792  0.55393  0.40563  1.0000
  O   O81       1.0  0.04432  0.44392  0.07881  1.0000
  O   O82       1.0  0.04422  0.94391  0.07884  1.0000
  O   O83       1.0  0.54431  0.44394  0.07883  1.0000
  O   O84       1.0  0.54424  0.94396  0.07879  1.0000
  O   O85       1.0  0.29430  0.30695  0.42184  1.0000
  O   O86       1.0  0.29429  0.80705  0.42191  1.0000
  O   O87       1.0  0.79439  0.30701  0.42188  1.0000
  O   O88       1.0  0.79432  0.80701  0.42189  1.0000
  O   O89       1.0  0.20676  0.44391  0.92187  1.0000
  O   O90       1.0  0.20667  0.94389  0.92188  1.0000
  O   O91       1.0  0.70669  0.44395  0.92189  1.0000
  O   O92       1.0  0.70667  0.94388  0.92192  1.0000
  O   O93       1.0  0.45672  0.30703  0.57879  1.0000
  O   O94       1.0  0.45669  0.80696  0.57885  1.0000
  O   O95       1.0  0.95667  0.30689  0.57881  1.0000
  O   O96       1.0  0.95663  0.80690  0.57888  1.0000
