data_image0
_chemical_formula_structural       Ca24Sn48O96
_chemical_formula_sum              "Ca24 Sn48 O96"
_cell_length_a       12.6104
_cell_length_b       11.56
_cell_length_c       18.0352
_cell_angle_alpha    83.8748
_cell_angle_beta     89.998
_cell_angle_gamma    90.0009

_space_group_name_H-M_alt    "P 1"
_space_group_IT_number       1

loop_
  _space_group_symop_operation_xyz
  'x, y, z'

loop_
  _atom_site_type_symbol
  _atom_site_label
  _atom_site_symmetry_multiplicity
  _atom_site_fract_x
  _atom_site_fract_y
  _atom_site_fract_z
  _atom_site_occupancy
  Ca  Ca1       1.0  0.00035  0.83558  0.96273  1.0000
  Ca  Ca2       1.0  0.50036  0.83558  0.96271  1.0000
  Ca  Ca3       1.0  0.25036  0.33559  0.96282  1.0000
  Ca  Ca4       1.0  0.75034  0.33559  0.96281  1.0000
  Ca  Ca5       1.0  0.00039  0.16914  0.66400  1.0000
  Ca  Ca6       1.0  0.50037  0.16914  0.66401  1.0000
  Ca  Ca7       1.0  0.25037  0.66873  0.66391  1.0000
  Ca  Ca8       1.0  0.75038  0.66872  0.66391  1.0000
  Ca  Ca9       1.0  0.00034  0.34699  0.82450  1.0000
  Ca  Ca10      1.0  0.50033  0.34699  0.82451  1.0000
  Ca  Ca11      1.0  0.25035  0.84704  0.82422  1.0000
  Ca  Ca12      1.0  0.75034  0.84701  0.82422  1.0000
  Ca  Ca13      1.0  0.00038  0.82700  0.33480  1.0000
  Ca  Ca14      1.0  0.50039  0.82698  0.33479  1.0000
  Ca  Ca15      1.0  0.25038  0.32643  0.33470  1.0000
  Ca  Ca16      1.0  0.75037  0.32643  0.33471  1.0000
  Ca  Ca17      1.0  0.00036  0.99948  0.49843  1.0000
  Ca  Ca18      1.0  0.50036  0.99949  0.49842  1.0000
  Ca  Ca19      1.0  0.25036  0.49957  0.49803  1.0000
  Ca  Ca20      1.0  0.75036  0.49956  0.49804  1.0000
  Ca  Ca21      1.0  0.00042  0.65655  0.17491  1.0000
  Ca  Ca22      1.0  0.50042  0.65656  0.17490  1.0000
  Ca  Ca23      1.0  0.25041  0.15660  0.17463  1.0000
  Ca  Ca24      1.0  0.75040  0.15660  0.17462  1.0000
  Sn  Sn1       1.0  0.12645  0.59611  0.83001  1.0000
  Sn  Sn2       1.0  0.62647  0.59612  0.83001  1.0000
  Sn  Sn3       1.0  0.37646  0.09615  0.83003  1.0000
  Sn  Sn4       1.0  0.87647  0.09615  0.83003  1.0000
  Sn  Sn5       1.0  0.00036  0.49658  0.62148  1.0000
  Sn  Sn6       1.0  0.50036  0.49659  0.62150  1.0000
  Sn  Sn7       1.0  0.25036  0.99676  0.62170  1.0000
  Sn  Sn8       1.0  0.75036  0.99676  0.62170  1.0000
  Sn  Sn9       1.0  0.00039  0.49814  0.98235  1.0000
  Sn  Sn10      1.0  0.50040  0.49814  0.98234  1.0000
  Sn  Sn11      1.0  0.25039  0.99780  0.98227  1.0000
  Sn  Sn12      1.0  0.75039  0.99780  0.98226  1.0000
  Sn  Sn13      1.0  0.87428  0.59615  0.83003  1.0000
  Sn  Sn14      1.0  0.37427  0.59612  0.83003  1.0000
  Sn  Sn15      1.0  0.12425  0.09616  0.83005  1.0000
  Sn  Sn16      1.0  0.62425  0.09616  0.83004  1.0000
  Sn  Sn17      1.0  0.12545  0.24952  0.49948  1.0000
  Sn  Sn18      1.0  0.62546  0.24952  0.49948  1.0000
  Sn  Sn19      1.0  0.37546  0.74953  0.49949  1.0000
  Sn  Sn20      1.0  0.87546  0.74954  0.49949  1.0000
  Sn  Sn21      1.0  0.00041  0.15523  0.28977  1.0000
  Sn  Sn22      1.0  0.50041  0.15521  0.28977  1.0000
  Sn  Sn23      1.0  0.25043  0.65554  0.28987  1.0000
  Sn  Sn24      1.0  0.75042  0.65553  0.28987  1.0000
  Sn  Sn25      1.0  0.87528  0.24953  0.49948  1.0000
  Sn  Sn26      1.0  0.37528  0.24954  0.49947  1.0000
  Sn  Sn27      1.0  0.12528  0.74956  0.49949  1.0000
  Sn  Sn28      1.0  0.62528  0.74954  0.49949  1.0000
  Sn  Sn29      1.0  0.87509  0.40706  0.16850  1.0000
  Sn  Sn30      1.0  0.37510  0.40706  0.16849  1.0000
  Sn  Sn31      1.0  0.12512  0.90710  0.16844  1.0000
  Sn  Sn32      1.0  0.62510  0.90710  0.16845  1.0000
  Sn  Sn33      1.0  0.00037  0.84686  0.70462  1.0000
  Sn  Sn34      1.0  0.50036  0.84686  0.70463  1.0000
  Sn  Sn35      1.0  0.25036  0.34708  0.70481  1.0000
  Sn  Sn36      1.0  0.75038  0.34710  0.70481  1.0000
  Sn  Sn37      1.0  0.12575  0.40707  0.16850  1.0000
  Sn  Sn38      1.0  0.62573  0.40708  0.16849  1.0000
  Sn  Sn39      1.0  0.37575  0.90713  0.16843  1.0000
  Sn  Sn40      1.0  0.87573  0.90712  0.16843  1.0000
  Sn  Sn41      1.0  0.00038  0.50049  0.37524  1.0000
  Sn  Sn42      1.0  0.50039  0.50049  0.37524  1.0000
  Sn  Sn43      1.0  0.25040  0.00076  0.37549  1.0000
  Sn  Sn44      1.0  0.75038  0.00075  0.37550  1.0000
  Sn  Sn45      1.0  0.00045  0.16678  0.05594  1.0000
  Sn  Sn46      1.0  0.50045  0.16675  0.05594  1.0000
  Sn  Sn47      1.0  0.25043  0.66663  0.05608  1.0000
  Sn  Sn48      1.0  0.75045  0.66664  0.05609  1.0000
  O   O1        1.0  0.11777  0.44344  0.90469  1.0000
  O   O2        1.0  0.61779  0.44344  0.90471  1.0000
  O   O3        1.0  0.36779  0.94334  0.90454  1.0000
  O   O4        1.0  0.86779  0.94332  0.90454  1.0000
  O   O5        1.0  0.00035  0.53651  0.77363  1.0000
  O   O6        1.0  0.50035  0.53651  0.77363  1.0000
  O   O7        1.0  0.25035  0.03670  0.77353  1.0000
  O   O8        1.0  0.75035  0.03668  0.77355  1.0000
  O   O9        1.0  0.88294  0.44348  0.90473  1.0000
  O   O10       1.0  0.38297  0.44346  0.90471  1.0000
  O   O11       1.0  0.13295  0.94334  0.90457  1.0000
  O   O12       1.0  0.63294  0.94337  0.90455  1.0000
  O   O13       1.0  0.00037  0.65866  0.89838  1.0000
  O   O14       1.0  0.50037  0.65866  0.89839  1.0000
  O   O15       1.0  0.25037  0.15846  0.89851  1.0000
  O   O16       1.0  0.75038  0.15845  0.89852  1.0000
  O   O17       1.0  0.87266  0.59648  0.57430  1.0000
  O   O18       1.0  0.37266  0.59647  0.57430  1.0000
  O   O19       1.0  0.12266  0.09671  0.57455  1.0000
  O   O20       1.0  0.62267  0.09673  0.57457  1.0000
  O   O21       1.0  0.00039  0.02728  0.76946  1.0000
  O   O22       1.0  0.50037  0.02726  0.76946  1.0000
  O   O23       1.0  0.25034  0.52690  0.76953  1.0000
  O   O24       1.0  0.75038  0.52689  0.76954  1.0000
  O   O25       1.0  0.00036  0.18584  0.44277  1.0000
  O   O26       1.0  0.50037  0.18584  0.44277  1.0000
  O   O27       1.0  0.25037  0.68611  0.44255  1.0000
  O   O28       1.0  0.75037  0.68612  0.44255  1.0000
  O   O29       1.0  0.87394  0.74677  0.75368  1.0000
  O   O30       1.0  0.37393  0.74676  0.75366  1.0000
  O   O31       1.0  0.12394  0.24701  0.75388  1.0000
  O   O32       1.0  0.62395  0.24702  0.75388  1.0000
  O   O33       1.0  0.12807  0.59648  0.57430  1.0000
  O   O34       1.0  0.62807  0.59648  0.57431  1.0000
  O   O35       1.0  0.37803  0.09672  0.57455  1.0000
  O   O36       1.0  0.87804  0.09674  0.57456  1.0000
  O   O37       1.0  0.00034  0.16362  0.88394  1.0000
  O   O38       1.0  0.50033  0.16362  0.88393  1.0000
  O   O39       1.0  0.25036  0.66375  0.88377  1.0000
  O   O40       1.0  0.75036  0.66373  0.88378  1.0000
  O   O41       1.0  0.00037  0.31585  0.56137  1.0000
  O   O42       1.0  0.50037  0.31583  0.56137  1.0000
  O   O43       1.0  0.25038  0.81550  0.56148  1.0000
  O   O44       1.0  0.75038  0.81551  0.56148  1.0000
  O   O45       1.0  0.12680  0.74676  0.75367  1.0000
  O   O46       1.0  0.62680  0.74674  0.75365  1.0000
  O   O47       1.0  0.37677  0.24700  0.75389  1.0000
  O   O48       1.0  0.87677  0.24698  0.75386  1.0000
  O   O49       1.0  0.87176  0.25541  0.24568  1.0000
  O   O50       1.0  0.37176  0.25541  0.24570  1.0000
  O   O51       1.0  0.12170  0.75573  0.24588  1.0000
  O   O52       1.0  0.62171  0.75573  0.24588  1.0000
  O   O53       1.0  0.00037  0.68307  0.43917  1.0000
  O   O54       1.0  0.50036  0.68308  0.43917  1.0000
  O   O55       1.0  0.25038  0.18257  0.43927  1.0000
  O   O56       1.0  0.75035  0.18255  0.43927  1.0000
  O   O57       1.0  0.87302  0.40166  0.42486  1.0000
  O   O58       1.0  0.37303  0.40167  0.42486  1.0000
  O   O59       1.0  0.12303  0.90198  0.42514  1.0000
  O   O60       1.0  0.62304  0.90197  0.42517  1.0000
  O   O61       1.0  0.12905  0.25541  0.24569  1.0000
  O   O62       1.0  0.62905  0.25542  0.24569  1.0000
  O   O63       1.0  0.37912  0.75575  0.24587  1.0000
  O   O64       1.0  0.87910  0.75576  0.24587  1.0000
  O   O65       1.0  0.00041  0.84261  0.10301  1.0000
  O   O66       1.0  0.50042  0.84259  0.10303  1.0000
  O   O67       1.0  0.25040  0.34274  0.10293  1.0000
  O   O68       1.0  0.75041  0.34273  0.10293  1.0000
  O   O69       1.0  0.00035  0.81323  0.55734  1.0000
  O   O70       1.0  0.50037  0.81322  0.55735  1.0000
  O   O71       1.0  0.25035  0.31346  0.55708  1.0000
  O   O72       1.0  0.75036  0.31345  0.55708  1.0000
  O   O73       1.0  0.00042  0.96343  0.23143  1.0000
  O   O74       1.0  0.50042  0.96345  0.23144  1.0000
  O   O75       1.0  0.25040  0.46301  0.23156  1.0000
  O   O76       1.0  0.75042  0.46301  0.23158  1.0000
  O   O77       1.0  0.12770  0.40163  0.42484  1.0000
  O   O78       1.0  0.62770  0.40163  0.42485  1.0000
  O   O79       1.0  0.37771  0.90196  0.42515  1.0000
  O   O80       1.0  0.87770  0.90197  0.42515  1.0000
  O   O81       1.0  0.00040  0.32737  0.11529  1.0000
  O   O82       1.0  0.50043  0.32736  0.11527  1.0000
  O   O83       1.0  0.25043  0.82706  0.11539  1.0000
  O   O84       1.0  0.75042  0.82705  0.11537  1.0000
  O   O85       1.0  0.12969  0.57063  0.10865  1.0000
  O   O86       1.0  0.62969  0.57064  0.10864  1.0000
  O   O87       1.0  0.37968  0.07058  0.10836  1.0000
  O   O88       1.0  0.87970  0.07058  0.10836  1.0000
  O   O89       1.0  0.00041  0.46706  0.22719  1.0000
  O   O90       1.0  0.50041  0.46703  0.22719  1.0000
  O   O91       1.0  0.25041  0.96730  0.22694  1.0000
  O   O92       1.0  0.75043  0.96727  0.22693  1.0000
  O   O93       1.0  0.87117  0.57059  0.10868  1.0000
  O   O94       1.0  0.37115  0.57063  0.10865  1.0000
  O   O95       1.0  0.12114  0.07052  0.10837  1.0000
  O   O96       1.0  0.62117  0.07053  0.10837  1.0000
