data_image0
_chemical_formula_structural       Rb27Ta27O81
_chemical_formula_sum              "Rb27 Ta27 O81"
_cell_length_a       12.1096
_cell_length_b       12.1096
_cell_length_c       12.1097
_cell_angle_alpha    90
_cell_angle_beta     90
_cell_angle_gamma    90

_space_group_name_H-M_alt    "P 1"
_space_group_IT_number       1

loop_
  _space_group_symop_operation_xyz
  'x, y, z'

loop_
  _atom_site_type_symbol
  _atom_site_label
  _atom_site_symmetry_multiplicity
  _atom_site_fract_x
  _atom_site_fract_y
  _atom_site_fract_z
  _atom_site_occupancy
  Rb  Rb1       1.0  0.16712  0.16710  0.16712  1.0000
  Rb  Rb2       1.0  0.16707  0.16708  0.50040  1.0000
  Rb  Rb3       1.0  0.16700  0.16699  0.83383  1.0000
  Rb  Rb4       1.0  0.16710  0.50033  0.16701  1.0000
  Rb  Rb5       1.0  0.16705  0.50047  0.50038  1.0000
  Rb  Rb6       1.0  0.16713  0.50044  0.83370  1.0000
  Rb  Rb7       1.0  0.16707  0.83377  0.16703  1.0000
  Rb  Rb8       1.0  0.16705  0.83375  0.50036  1.0000
  Rb  Rb9       1.0  0.16701  0.83376  0.83380  1.0000
  Rb  Rb10      1.0  0.50043  0.16711  0.16710  1.0000
  Rb  Rb11      1.0  0.50038  0.16709  0.50052  1.0000
  Rb  Rb12      1.0  0.50041  0.16704  0.83377  1.0000
  Rb  Rb13      1.0  0.50040  0.50033  0.16721  1.0000
  Rb  Rb14      1.0  0.50025  0.50037  0.50042  1.0000
  Rb  Rb15      1.0  0.50029  0.50034  0.83368  1.0000
  Rb  Rb16      1.0  0.50042  0.83366  0.16710  1.0000
  Rb  Rb17      1.0  0.50041  0.83375  0.50043  1.0000
  Rb  Rb18      1.0  0.50042  0.83370  0.83378  1.0000
  Rb  Rb19      1.0  0.83365  0.16708  0.16707  1.0000
  Rb  Rb20      1.0  0.83369  0.16718  0.50057  1.0000
  Rb  Rb21      1.0  0.83378  0.16706  0.83375  1.0000
  Rb  Rb22      1.0  0.83370  0.50037  0.16711  1.0000
  Rb  Rb23      1.0  0.83381  0.50048  0.50047  1.0000
  Rb  Rb24      1.0  0.83381  0.50041  0.83377  1.0000
  Rb  Rb25      1.0  0.83371  0.83371  0.16705  1.0000
  Rb  Rb26      1.0  0.83369  0.83381  0.50040  1.0000
  Rb  Rb27      1.0  0.83367  0.83371  0.83380  1.0000
  Ta  Ta1       1.0  0.00064  0.00033  0.00033  1.0000
  Ta  Ta2       1.0  0.00029  0.00049  0.33362  1.0000
  Ta  Ta3       1.0  0.00020  0.00039  0.66698  1.0000
  Ta  Ta4       1.0  0.00051  0.33365  0.00051  1.0000
  Ta  Ta5       1.0  0.00018  0.33377  0.33386  1.0000
  Ta  Ta6       1.0  0.00026  0.33374  0.66720  1.0000
  Ta  Ta7       1.0  0.00039  0.66697  0.00015  1.0000
  Ta  Ta8       1.0  0.00035  0.66716  0.33344  1.0000
  Ta  Ta9       1.0  0.00050  0.66712  0.66685  1.0000
  Ta  Ta10      1.0  0.33400  0.00033  0.00043  1.0000
  Ta  Ta11      1.0  0.33370  0.00051  0.33376  1.0000
  Ta  Ta12      1.0  0.33352  0.00047  0.66712  1.0000
  Ta  Ta13      1.0  0.33383  0.33364  0.00047  1.0000
  Ta  Ta14      1.0  0.33352  0.33380  0.33384  1.0000
  Ta  Ta15      1.0  0.33353  0.33379  0.66717  1.0000
  Ta  Ta16      1.0  0.33376  0.66703  0.00019  1.0000
  Ta  Ta17      1.0  0.33365  0.66721  0.33351  1.0000
  Ta  Ta18      1.0  0.33382  0.66720  0.66688  1.0000
  Ta  Ta19      1.0  0.66732  0.00012  0.00072  1.0000
  Ta  Ta20      1.0  0.66703  0.00037  0.33407  1.0000
  Ta  Ta21      1.0  0.66689  0.00046  0.66744  1.0000
  Ta  Ta22      1.0  0.66717  0.33343  0.00065  1.0000
  Ta  Ta23      1.0  0.66689  0.33373  0.33405  1.0000
  Ta  Ta24      1.0  0.66692  0.33378  0.66737  1.0000
  Ta  Ta25      1.0  0.66708  0.66671  0.00033  1.0000
  Ta  Ta26      1.0  0.66705  0.66705  0.33370  1.0000
  Ta  Ta27      1.0  0.66717  0.66708  0.66704  1.0000
  O   O1        1.0  0.16691  0.00032  0.00051  1.0000
  O   O2        1.0  0.16713  0.00054  0.33386  1.0000
  O   O3        1.0  0.16713  0.00041  0.66706  1.0000
  O   O4        1.0  0.16705  0.33374  0.00034  1.0000
  O   O5        1.0  0.16714  0.33362  0.33368  1.0000
  O   O6        1.0  0.16713  0.33368  0.66704  1.0000
  O   O7        1.0  0.16707  0.66702  0.00043  1.0000
  O   O8        1.0  0.16711  0.66708  0.33375  1.0000
  O   O9        1.0  0.16698  0.66721  0.66732  1.0000
  O   O10       1.0  0.50026  0.00037  0.00043  1.0000
  O   O11       1.0  0.50044  0.00041  0.33370  1.0000
  O   O12       1.0  0.50043  0.00047  0.66714  1.0000
  O   O13       1.0  0.50036  0.33374  0.00027  1.0000
  O   O14       1.0  0.50046  0.33372  0.33368  1.0000
  O   O15       1.0  0.50044  0.33368  0.66706  1.0000
  O   O16       1.0  0.50040  0.66708  0.00054  1.0000
  O   O17       1.0  0.50038  0.66700  0.33395  1.0000
  O   O18       1.0  0.50033  0.66701  0.66706  1.0000
  O   O19       1.0  0.83361  0.00051  0.00042  1.0000
  O   O20       1.0  0.83379  0.00046  0.33376  1.0000
  O   O21       1.0  0.83377  0.00043  0.66717  1.0000
  O   O22       1.0  0.83367  0.33372  0.00030  1.0000
  O   O23       1.0  0.83382  0.33374  0.33375  1.0000
  O   O24       1.0  0.83383  0.33390  0.66702  1.0000
  O   O25       1.0  0.83365  0.66698  0.00058  1.0000
  O   O26       1.0  0.83375  0.66718  0.33379  1.0000
  O   O27       1.0  0.83365  0.66714  0.66721  1.0000
  O   O28       1.0  0.00037  0.16712  0.00048  1.0000
  O   O29       1.0  0.00035  0.16712  0.33375  1.0000
  O   O30       1.0  0.00042  0.16718  0.66708  1.0000
  O   O31       1.0  0.00036  0.50041  0.00041  1.0000
  O   O32       1.0  0.00041  0.50047  0.33375  1.0000
  O   O33       1.0  0.00050  0.50052  0.66715  1.0000
  O   O34       1.0  0.00034  0.83378  0.00052  1.0000
  O   O35       1.0  0.00044  0.83375  0.33368  1.0000
  O   O36       1.0  0.00038  0.83383  0.66715  1.0000
  O   O37       1.0  0.33376  0.16709  0.00034  1.0000
  O   O38       1.0  0.33392  0.16695  0.33372  1.0000
  O   O39       1.0  0.33369  0.16694  0.66714  1.0000
  O   O40       1.0  0.33383  0.50037  0.00038  1.0000
  O   O41       1.0  0.33371  0.50026  0.33374  1.0000
  O   O42       1.0  0.33360  0.50032  0.66705  1.0000
  O   O43       1.0  0.33368  0.83369  0.00050  1.0000
  O   O44       1.0  0.33370  0.83363  0.33375  1.0000
  O   O45       1.0  0.33374  0.83365  0.66712  1.0000
  O   O46       1.0  0.66701  0.16718  0.00026  1.0000
  O   O47       1.0  0.66706  0.16713  0.33369  1.0000
  O   O48       1.0  0.66717  0.16708  0.66710  1.0000
  O   O49       1.0  0.66705  0.50048  0.00032  1.0000
  O   O50       1.0  0.66718  0.50042  0.33384  1.0000
  O   O51       1.0  0.66700  0.50040  0.66706  1.0000
  O   O52       1.0  0.66702  0.83385  0.00039  1.0000
  O   O53       1.0  0.66709  0.83377  0.33373  1.0000
  O   O54       1.0  0.66698  0.83375  0.66712  1.0000
  O   O55       1.0  0.00035  0.00047  0.16719  1.0000
  O   O56       1.0  0.00035  0.00049  0.50049  1.0000
  O   O57       1.0  0.00040  0.00053  0.83380  1.0000
  O   O58       1.0  0.00045  0.33380  0.16703  1.0000
  O   O59       1.0  0.00045  0.33385  0.50036  1.0000
  O   O60       1.0  0.00048  0.33373  0.83370  1.0000
  O   O61       1.0  0.00040  0.66710  0.16720  1.0000
  O   O62       1.0  0.00043  0.66726  0.50057  1.0000
  O   O63       1.0  0.00028  0.66716  0.83395  1.0000
  O   O64       1.0  0.33365  0.00043  0.16710  1.0000
  O   O65       1.0  0.33385  0.00029  0.50046  1.0000
  O   O66       1.0  0.33367  0.00027  0.83385  1.0000
  O   O67       1.0  0.33373  0.33359  0.16706  1.0000
  O   O68       1.0  0.33375  0.33362  0.50039  1.0000
  O   O69       1.0  0.33369  0.33366  0.83368  1.0000
  O   O70       1.0  0.33373  0.66703  0.16721  1.0000
  O   O71       1.0  0.33356  0.66709  0.50056  1.0000
  O   O72       1.0  0.33376  0.66708  0.83389  1.0000
  O   O73       1.0  0.66705  0.00047  0.16696  1.0000
  O   O74       1.0  0.66711  0.00048  0.50028  1.0000
  O   O75       1.0  0.66703  0.00046  0.83363  1.0000
  O   O76       1.0  0.66714  0.33385  0.16700  1.0000
  O   O77       1.0  0.66712  0.33381  0.50034  1.0000
  O   O78       1.0  0.66714  0.33382  0.83363  1.0000
  O   O79       1.0  0.66702  0.66701  0.16720  1.0000
  O   O80       1.0  0.66711  0.66709  0.50048  1.0000
  O   O81       1.0  0.66697  0.66704  0.83382  1.0000
