data_image0
_chemical_formula_structural       Cs16Ti8Ge24O72
_chemical_formula_sum              "Cs16 Ti8 Ge24 O72"
_cell_length_a       14.4407
_cell_length_b       12.5007
_cell_length_c       10.4517
_cell_angle_alpha    90.0016
_cell_angle_beta     90.0069
_cell_angle_gamma    90.0174

_space_group_name_H-M_alt    "P 1"
_space_group_IT_number       1

loop_
  _space_group_symop_operation_xyz
  'x, y, z'

loop_
  _atom_site_type_symbol
  _atom_site_label
  _atom_site_symmetry_multiplicity
  _atom_site_fract_x
  _atom_site_fract_y
  _atom_site_fract_z
  _atom_site_occupancy
  Cs  Cs1       1.0  0.25027  0.16708  0.44324  1.0000
  Cs  Cs2       1.0  0.50028  0.66711  0.44316  1.0000
  Cs  Cs3       1.0  0.75021  0.16716  0.44326  1.0000
  Cs  Cs4       1.0  0.00014  0.66715  0.44328  1.0000
  Cs  Cs5       1.0  0.25045  0.83375  0.94306  1.0000
  Cs  Cs6       1.0  0.50047  0.33364  0.94310  1.0000
  Cs  Cs7       1.0  0.75049  0.83381  0.94310  1.0000
  Cs  Cs8       1.0  0.00049  0.33367  0.94322  1.0000
  Cs  Cs9       1.0  0.25043  0.83371  0.55766  1.0000
  Cs  Cs10      1.0  0.50045  0.33370  0.55776  1.0000
  Cs  Cs11      1.0  0.75051  0.83372  0.55782  1.0000
  Cs  Cs12      1.0  0.00053  0.33369  0.55765  1.0000
  Cs  Cs13      1.0  0.25013  0.16705  0.05764  1.0000
  Cs  Cs14      1.0  0.50018  0.66710  0.05761  1.0000
  Cs  Cs15      1.0  0.75020  0.16708  0.05779  1.0000
  Cs  Cs16      1.0  0.00016  0.66700  0.05765  1.0000
  Ti  Ti1       1.0  0.00041  0.00044  0.50056  1.0000
  Ti  Ti2       1.0  0.25029  0.50046  0.50052  1.0000
  Ti  Ti3       1.0  0.50036  0.00049  0.50058  1.0000
  Ti  Ti4       1.0  0.75038  0.50040  0.50049  1.0000
  Ti  Ti5       1.0  0.00041  0.00038  0.00057  1.0000
  Ti  Ti6       1.0  0.25046  0.50038  0.00053  1.0000
  Ti  Ti7       1.0  0.50041  0.00032  0.00060  1.0000
  Ti  Ti8       1.0  0.75036  0.50041  0.00049  1.0000
  Ge  Ge1       1.0  0.27302  0.31619  0.75049  1.0000
  Ge  Ge2       1.0  0.52300  0.81615  0.75042  1.0000
  Ge  Ge3       1.0  0.77299  0.31614  0.75047  1.0000
  Ge  Ge4       1.0  0.02301  0.81616  0.75047  1.0000
  Ge  Ge5       1.0  0.35112  0.07013  0.75055  1.0000
  Ge  Ge6       1.0  0.60111  0.57014  0.75050  1.0000
  Ge  Ge7       1.0  0.85109  0.07008  0.75054  1.0000
  Ge  Ge8       1.0  0.10111  0.57013  0.75053  1.0000
  Ge  Ge9       1.0  0.12751  0.11491  0.75060  1.0000
  Ge  Ge10      1.0  0.37749  0.61488  0.75045  1.0000
  Ge  Ge11      1.0  0.62749  0.11487  0.75064  1.0000
  Ge  Ge12      1.0  0.87749  0.61486  0.75051  1.0000
  Ge  Ge13      1.0  0.14970  0.93072  0.25063  1.0000
  Ge  Ge14      1.0  0.39965  0.43065  0.25068  1.0000
  Ge  Ge15      1.0  0.64976  0.93076  0.25074  1.0000
  Ge  Ge16      1.0  0.89969  0.43071  0.25059  1.0000
  Ge  Ge17      1.0  0.37330  0.88586  0.25055  1.0000
  Ge  Ge18      1.0  0.62327  0.38583  0.25050  1.0000
  Ge  Ge19      1.0  0.87332  0.88584  0.25055  1.0000
  Ge  Ge20      1.0  0.12328  0.38586  0.25052  1.0000
  Ge  Ge21      1.0  0.22758  0.68465  0.25039  1.0000
  Ge  Ge22      1.0  0.47756  0.18464  0.25050  1.0000
  Ge  Ge23      1.0  0.72751  0.68467  0.25045  1.0000
  Ge  Ge24      1.0  0.97755  0.18464  0.25047  1.0000
  O   O1        1.0  0.11062  0.98398  0.39302  1.0000
  O   O2        1.0  0.36047  0.48384  0.39306  1.0000
  O   O3        1.0  0.61062  0.98402  0.39309  1.0000
  O   O4        1.0  0.86063  0.48388  0.39304  1.0000
  O   O5        1.0  0.06801  0.10242  0.89303  1.0000
  O   O6        1.0  0.31808  0.60231  0.89294  1.0000
  O   O7        1.0  0.56806  0.10236  0.89310  1.0000
  O   O8        1.0  0.81794  0.60237  0.89287  1.0000
  O   O9        1.0  0.29326  0.38178  0.89308  1.0000
  O   O10       1.0  0.54321  0.88183  0.89297  1.0000
  O   O11       1.0  0.79320  0.38183  0.89301  1.0000
  O   O12       1.0  0.04323  0.88190  0.89296  1.0000
  O   O13       1.0  0.20738  0.61887  0.39287  1.0000
  O   O14       1.0  0.45749  0.11906  0.39313  1.0000
  O   O15       1.0  0.70743  0.61890  0.39297  1.0000
  O   O16       1.0  0.95752  0.11897  0.39306  1.0000
  O   O17       1.0  0.43280  0.89845  0.39296  1.0000
  O   O18       1.0  0.68277  0.39833  0.39294  1.0000
  O   O19       1.0  0.93281  0.89835  0.39299  1.0000
  O   O20       1.0  0.18265  0.39830  0.39305  1.0000
  O   O21       1.0  0.39020  0.01690  0.89298  1.0000
  O   O22       1.0  0.64012  0.51685  0.89294  1.0000
  O   O23       1.0  0.89015  0.01677  0.89295  1.0000
  O   O24       1.0  0.14023  0.51680  0.89288  1.0000
  O   O25       1.0  0.39011  0.01686  0.60808  1.0000
  O   O26       1.0  0.64022  0.51685  0.60810  1.0000
  O   O27       1.0  0.89019  0.01689  0.60808  1.0000
  O   O28       1.0  0.14009  0.51692  0.60802  1.0000
  O   O29       1.0  0.43266  0.89837  0.10802  1.0000
  O   O30       1.0  0.68263  0.39846  0.10799  1.0000
  O   O31       1.0  0.93278  0.89834  0.10808  1.0000
  O   O32       1.0  0.18275  0.39847  0.10808  1.0000
  O   O33       1.0  0.20752  0.61912  0.10772  1.0000
  O   O34       1.0  0.45747  0.11892  0.10797  1.0000
  O   O35       1.0  0.70742  0.61906  0.10783  1.0000
  O   O36       1.0  0.95740  0.11894  0.10792  1.0000
  O   O37       1.0  0.29318  0.38191  0.60800  1.0000
  O   O38       1.0  0.54320  0.88183  0.60789  1.0000
  O   O39       1.0  0.79318  0.38176  0.60791  1.0000
  O   O40       1.0  0.04319  0.88181  0.60794  1.0000
  O   O41       1.0  0.06809  0.10235  0.60809  1.0000
  O   O42       1.0  0.31795  0.60245  0.60800  1.0000
  O   O43       1.0  0.56795  0.10237  0.60821  1.0000
  O   O44       1.0  0.81806  0.60234  0.60800  1.0000
  O   O45       1.0  0.11056  0.98394  0.10818  1.0000
  O   O46       1.0  0.36055  0.48394  0.10823  1.0000
  O   O47       1.0  0.61057  0.98375  0.10819  1.0000
  O   O48       1.0  0.86045  0.48395  0.10821  1.0000
  O   O49       1.0  0.14170  0.78899  0.25047  1.0000
  O   O50       1.0  0.39161  0.28892  0.25051  1.0000
  O   O51       1.0  0.64164  0.78903  0.25065  1.0000
  O   O52       1.0  0.89165  0.28897  0.25046  1.0000
  O   O53       1.0  0.22989  0.03634  0.75058  1.0000
  O   O54       1.0  0.47989  0.53635  0.75033  1.0000
  O   O55       1.0  0.72987  0.03631  0.75034  1.0000
  O   O56       1.0  0.97989  0.53635  0.75051  1.0000
  O   O57       1.0  0.16292  0.25297  0.75051  1.0000
  O   O58       1.0  0.41292  0.75294  0.75047  1.0000
  O   O59       1.0  0.66290  0.25294  0.75055  1.0000
  O   O60       1.0  0.91293  0.75292  0.75054  1.0000
  O   O61       1.0  0.33772  0.74782  0.25070  1.0000
  O   O62       1.0  0.58772  0.24779  0.25044  1.0000
  O   O63       1.0  0.83764  0.74786  0.25053  1.0000
  O   O64       1.0  0.08767  0.24785  0.25040  1.0000
  O   O65       1.0  0.27090  0.96443  0.25053  1.0000
  O   O66       1.0  0.52084  0.46431  0.25070  1.0000
  O   O67       1.0  0.77095  0.96446  0.25064  1.0000
  O   O68       1.0  0.02089  0.46443  0.25028  1.0000
  O   O69       1.0  0.35892  0.21186  0.75042  1.0000
  O   O70       1.0  0.60894  0.71185  0.75041  1.0000
  O   O71       1.0  0.85890  0.21181  0.75052  1.0000
  O   O72       1.0  0.10895  0.71185  0.75042  1.0000
