data_image0
_chemical_formula_structural       Mg8Sn8Ge16O48
_chemical_formula_sum              "Mg8 Sn8 Ge16 O48"
_cell_length_a       10.0473
_cell_length_b       10.6989
_cell_length_c       10.2913
_cell_angle_alpha    77.5626
_cell_angle_beta     89.9987
_cell_angle_gamma    89.9989

_space_group_name_H-M_alt    "P 1"
_space_group_IT_number       1

loop_
  _space_group_symop_operation_xyz
  'x, y, z'

loop_
  _atom_site_type_symbol
  _atom_site_label
  _atom_site_symmetry_multiplicity
  _atom_site_fract_x
  _atom_site_fract_y
  _atom_site_fract_z
  _atom_site_occupancy
  Mg  Mg1       1.0  0.53778  0.11510  0.22773  1.0000
  Mg  Mg2       1.0  0.53778  0.61510  0.22772  1.0000
  Mg  Mg3       1.0  0.03797  0.13565  0.77321  1.0000
  Mg  Mg4       1.0  0.03797  0.63567  0.77323  1.0000
  Mg  Mg5       1.0  0.46298  0.38570  0.77319  1.0000
  Mg  Mg6       1.0  0.46301  0.88571  0.77319  1.0000
  Mg  Mg7       1.0  0.96319  0.36502  0.22776  1.0000
  Mg  Mg8       1.0  0.96320  0.86501  0.22775  1.0000
  Sn  Sn1       1.0  0.37378  0.35910  0.26023  1.0000
  Sn  Sn2       1.0  0.37379  0.85910  0.26024  1.0000
  Sn  Sn3       1.0  0.87376  0.39173  0.74079  1.0000
  Sn  Sn4       1.0  0.87376  0.89170  0.74081  1.0000
  Sn  Sn5       1.0  0.62716  0.14175  0.74067  1.0000
  Sn  Sn6       1.0  0.62714  0.64177  0.74068  1.0000
  Sn  Sn7       1.0  0.12714  0.10903  0.26038  1.0000
  Sn  Sn8       1.0  0.12714  0.60902  0.26036  1.0000
  Ge  Ge1       1.0  0.65389  0.39913  0.05382  1.0000
  Ge  Ge2       1.0  0.65391  0.89911  0.05384  1.0000
  Ge  Ge3       1.0  0.15385  0.35138  0.94694  1.0000
  Ge  Ge4       1.0  0.15385  0.85136  0.94695  1.0000
  Ge  Ge5       1.0  0.34719  0.10139  0.94694  1.0000
  Ge  Ge6       1.0  0.34717  0.60141  0.94691  1.0000
  Ge  Ge7       1.0  0.84714  0.14908  0.05384  1.0000
  Ge  Ge8       1.0  0.84711  0.64907  0.05381  1.0000
  Ge  Ge9       1.0  0.64692  0.37407  0.47015  1.0000
  Ge  Ge10      1.0  0.64693  0.87405  0.47017  1.0000
  Ge  Ge11      1.0  0.14698  0.37668  0.53102  1.0000
  Ge  Ge12      1.0  0.14699  0.87667  0.53102  1.0000
  Ge  Ge13      1.0  0.35392  0.12669  0.53093  1.0000
  Ge  Ge14      1.0  0.35393  0.62672  0.53091  1.0000
  Ge  Ge15      1.0  0.85404  0.12405  0.47026  1.0000
  Ge  Ge16      1.0  0.85402  0.62406  0.47027  1.0000
  O   O1        1.0  0.78584  0.47796  0.44536  1.0000
  O   O2        1.0  0.78583  0.97798  0.44534  1.0000
  O   O3        1.0  0.28601  0.27289  0.55600  1.0000
  O   O4        1.0  0.28600  0.77291  0.55598  1.0000
  O   O5        1.0  0.21491  0.02294  0.55596  1.0000
  O   O6        1.0  0.21490  0.52293  0.55595  1.0000
  O   O7        1.0  0.71510  0.22794  0.44532  1.0000
  O   O8        1.0  0.71510  0.72795  0.44531  1.0000
  O   O9        1.0  0.69595  0.05220  0.09742  1.0000
  O   O10       1.0  0.69595  0.55221  0.09741  1.0000
  O   O11       1.0  0.19597  0.19836  0.90332  1.0000
  O   O12       1.0  0.19599  0.69834  0.90332  1.0000
  O   O13       1.0  0.30502  0.44837  0.90334  1.0000
  O   O14       1.0  0.30501  0.94837  0.90336  1.0000
  O   O15       1.0  0.80505  0.30217  0.09739  1.0000
  O   O16       1.0  0.80502  0.80216  0.09738  1.0000
  O   O17       1.0  0.96105  0.19052  0.34102  1.0000
  O   O18       1.0  0.96106  0.69050  0.34104  1.0000
  O   O19       1.0  0.46106  0.06027  0.66006  1.0000
  O   O20       1.0  0.46103  0.56027  0.66006  1.0000
  O   O21       1.0  0.03983  0.31024  0.66011  1.0000
  O   O22       1.0  0.03983  0.81022  0.66008  1.0000
  O   O23       1.0  0.53986  0.44060  0.34094  1.0000
  O   O24       1.0  0.53986  0.94056  0.34096  1.0000
  O   O25       1.0  0.96445  0.05086  0.15002  1.0000
  O   O26       1.0  0.96442  0.55087  0.15005  1.0000
  O   O27       1.0  0.46447  0.19985  0.85097  1.0000
  O   O28       1.0  0.46445  0.69985  0.85098  1.0000
  O   O29       1.0  0.03652  0.44980  0.85099  1.0000
  O   O30       1.0  0.03650  0.94979  0.85102  1.0000
  O   O31       1.0  0.53652  0.30093  0.15000  1.0000
  O   O32       1.0  0.53654  0.80091  0.14999  1.0000
  O   O33       1.0  0.59980  0.43793  0.89157  1.0000
  O   O34       1.0  0.59981  0.93794  0.89156  1.0000
  O   O35       1.0  0.09997  0.31277  0.10930  1.0000
  O   O36       1.0  0.09996  0.81279  0.10927  1.0000
  O   O37       1.0  0.40095  0.06286  0.10931  1.0000
  O   O38       1.0  0.40095  0.56285  0.10930  1.0000
  O   O39       1.0  0.90108  0.18784  0.89153  1.0000
  O   O40       1.0  0.90109  0.68783  0.89155  1.0000
  O   O41       1.0  0.56728  0.33330  0.62305  1.0000
  O   O42       1.0  0.56726  0.83329  0.62306  1.0000
  O   O43       1.0  0.06742  0.41744  0.37803  1.0000
  O   O44       1.0  0.06742  0.91745  0.37804  1.0000
  O   O45       1.0  0.43345  0.16749  0.37797  1.0000
  O   O46       1.0  0.43345  0.66751  0.37795  1.0000
  O   O47       1.0  0.93363  0.08325  0.62316  1.0000
  O   O48       1.0  0.93363  0.58328  0.62318  1.0000
