data_image0
_chemical_formula_structural       K16Rb16Ge16O48
_chemical_formula_sum              "K16 Rb16 Ge16 O48"
_cell_length_a       11.1858
_cell_length_b       11.5805
_cell_length_c       13.1427
_cell_angle_alpha    90.0021
_cell_angle_beta     89.9968
_cell_angle_gamma    89.9946

_space_group_name_H-M_alt    "P 1"
_space_group_IT_number       1

loop_
  _space_group_symop_operation_xyz
  'x, y, z'

loop_
  _atom_site_type_symbol
  _atom_site_label
  _atom_site_symmetry_multiplicity
  _atom_site_fract_x
  _atom_site_fract_y
  _atom_site_fract_z
  _atom_site_occupancy
  K   K1        1.0  0.12537  0.86407  0.17742  1.0000
  K   K2        1.0  0.62536  0.86404  0.17743  1.0000
  K   K3        1.0  0.37544  0.13686  0.82328  1.0000
  K   K4        1.0  0.87544  0.13687  0.82332  1.0000
  K   K5        1.0  0.37537  0.36402  0.32332  1.0000
  K   K6        1.0  0.87536  0.36405  0.32333  1.0000
  K   K7        1.0  0.12543  0.63686  0.67740  1.0000
  K   K8        1.0  0.62545  0.63683  0.67742  1.0000
  K   K9        1.0  0.12543  0.09636  0.00277  1.0000
  K   K10       1.0  0.62542  0.09637  0.00277  1.0000
  K   K11       1.0  0.37541  0.90441  0.99795  1.0000
  K   K12       1.0  0.87542  0.90442  0.99797  1.0000
  K   K13       1.0  0.37543  0.59643  0.49796  1.0000
  K   K14       1.0  0.87541  0.59643  0.49796  1.0000
  K   K15       1.0  0.12543  0.40446  0.50279  1.0000
  K   K16       1.0  0.62544  0.40446  0.50277  1.0000
  Rb  Rb1       1.0  0.12541  0.08445  0.43908  1.0000
  Rb  Rb2       1.0  0.62543  0.08440  0.43911  1.0000
  Rb  Rb3       1.0  0.37540  0.91641  0.56180  1.0000
  Rb  Rb4       1.0  0.87541  0.91642  0.56183  1.0000
  Rb  Rb5       1.0  0.37542  0.58440  0.06174  1.0000
  Rb  Rb6       1.0  0.87543  0.58440  0.06180  1.0000
  Rb  Rb7       1.0  0.12543  0.41636  0.93904  1.0000
  Rb  Rb8       1.0  0.62544  0.41636  0.93902  1.0000
  Rb  Rb9       1.0  0.12543  0.55181  0.24787  1.0000
  Rb  Rb10      1.0  0.62538  0.55183  0.24786  1.0000
  Rb  Rb11      1.0  0.37544  0.44901  0.75293  1.0000
  Rb  Rb12      1.0  0.87545  0.44903  0.75295  1.0000
  Rb  Rb13      1.0  0.37540  0.05185  0.25293  1.0000
  Rb  Rb14      1.0  0.87536  0.05183  0.25297  1.0000
  Rb  Rb15      1.0  0.12545  0.94898  0.74791  1.0000
  Rb  Rb16      1.0  0.62542  0.94895  0.74792  1.0000
  Ge  Ge1       1.0  0.12536  0.25088  0.20717  1.0000
  Ge  Ge2       1.0  0.62535  0.25087  0.20720  1.0000
  Ge  Ge3       1.0  0.37541  0.74996  0.79355  1.0000
  Ge  Ge4       1.0  0.87545  0.74999  0.79354  1.0000
  Ge  Ge5       1.0  0.37532  0.75085  0.29350  1.0000
  Ge  Ge6       1.0  0.87531  0.75084  0.29350  1.0000
  Ge  Ge7       1.0  0.12545  0.24991  0.70711  1.0000
  Ge  Ge8       1.0  0.62546  0.24988  0.70710  1.0000
  Ge  Ge9       1.0  0.12536  0.76853  0.44453  1.0000
  Ge  Ge10      1.0  0.62533  0.76854  0.44455  1.0000
  Ge  Ge11      1.0  0.37543  0.23223  0.55612  1.0000
  Ge  Ge12      1.0  0.87542  0.23223  0.55613  1.0000
  Ge  Ge13      1.0  0.37533  0.26852  0.05612  1.0000
  Ge  Ge14      1.0  0.87540  0.26852  0.05614  1.0000
  Ge  Ge15      1.0  0.12544  0.73221  0.94455  1.0000
  Ge  Ge16      1.0  0.62544  0.73221  0.94455  1.0000
  O   O1        1.0  0.12536  0.10148  0.20906  1.0000
  O   O2        1.0  0.62538  0.10143  0.20906  1.0000
  O   O3        1.0  0.37542  0.89938  0.79174  1.0000
  O   O4        1.0  0.87543  0.89940  0.79174  1.0000
  O   O5        1.0  0.37535  0.60146  0.29164  1.0000
  O   O6        1.0  0.87534  0.60147  0.29167  1.0000
  O   O7        1.0  0.12544  0.39933  0.70902  1.0000
  O   O8        1.0  0.62544  0.39925  0.70905  1.0000
  O   O9        1.0  0.12543  0.32073  0.32313  1.0000
  O   O10       1.0  0.62538  0.32077  0.32316  1.0000
  O   O11       1.0  0.37543  0.68014  0.67756  1.0000
  O   O12       1.0  0.87544  0.68016  0.67756  1.0000
  O   O13       1.0  0.37540  0.82073  0.17759  1.0000
  O   O14       1.0  0.87536  0.82069  0.17759  1.0000
  O   O15       1.0  0.12546  0.18011  0.82311  1.0000
  O   O16       1.0  0.62543  0.18007  0.82306  1.0000
  O   O17       1.0  0.12538  0.62166  0.46785  1.0000
  O   O18       1.0  0.62543  0.62168  0.46787  1.0000
  O   O19       1.0  0.37543  0.37912  0.53288  1.0000
  O   O20       1.0  0.87543  0.37910  0.53289  1.0000
  O   O21       1.0  0.37541  0.12165  0.03282  1.0000
  O   O22       1.0  0.87540  0.12165  0.03286  1.0000
  O   O23       1.0  0.12544  0.87910  0.96786  1.0000
  O   O24       1.0  0.62541  0.87908  0.96786  1.0000
  O   O25       1.0  0.00032  0.31132  0.13638  1.0000
  O   O26       1.0  0.50033  0.31132  0.13632  1.0000
  O   O27       1.0  0.50048  0.68945  0.86438  1.0000
  O   O28       1.0  0.00044  0.68948  0.86437  1.0000
  O   O29       1.0  0.50028  0.81123  0.36449  1.0000
  O   O30       1.0  0.00028  0.81127  0.36445  1.0000
  O   O31       1.0  0.25051  0.68945  0.86445  1.0000
  O   O32       1.0  0.75050  0.68946  0.86444  1.0000
  O   O33       1.0  0.00046  0.18945  0.63623  1.0000
  O   O34       1.0  0.50047  0.18946  0.63626  1.0000
  O   O35       1.0  0.25036  0.31129  0.13625  1.0000
  O   O36       1.0  0.75035  0.31133  0.13626  1.0000
  O   O37       1.0  0.25045  0.18943  0.63626  1.0000
  O   O38       1.0  0.75044  0.18946  0.63628  1.0000
  O   O39       1.0  0.25031  0.81127  0.36436  1.0000
  O   O40       1.0  0.75034  0.81131  0.36436  1.0000
  O   O41       1.0  0.12540  0.64271  0.04966  1.0000
  O   O42       1.0  0.62543  0.64269  0.04963  1.0000
  O   O43       1.0  0.37544  0.35807  0.95107  1.0000
  O   O44       1.0  0.87543  0.35804  0.95108  1.0000
  O   O45       1.0  0.37542  0.14274  0.45102  1.0000
  O   O46       1.0  0.87544  0.14275  0.45104  1.0000
  O   O47       1.0  0.12537  0.85802  0.54965  1.0000
  O   O48       1.0  0.62538  0.85802  0.54965  1.0000
