data_image0
_chemical_formula_structural       Ba6Sr12In36O72
_chemical_formula_sum              "Ba6 Sr12 In36 O72"
_cell_length_a       10.0131
_cell_length_b       17.3421
_cell_length_c       9.95957
_cell_angle_alpha    90.0004
_cell_angle_beta     90.0002
_cell_angle_gamma    90.0009

_space_group_name_H-M_alt    "P 1"
_space_group_IT_number       1

loop_
  _space_group_symop_operation_xyz
  'x, y, z'

loop_
  _atom_site_type_symbol
  _atom_site_label
  _atom_site_symmetry_multiplicity
  _atom_site_fract_x
  _atom_site_fract_y
  _atom_site_fract_z
  _atom_site_occupancy
  Ba  Ba1       1.0  0.00045  0.00027  0.41846  1.0000
  Ba  Ba2       1.0  0.50055  0.50028  0.41850  1.0000
  Ba  Ba3       1.0  0.00048  0.00029  0.08516  1.0000
  Ba  Ba4       1.0  0.50045  0.50030  0.08517  1.0000
  Ba  Ba5       1.0  0.00052  0.00034  0.75185  1.0000
  Ba  Ba6       1.0  0.50053  0.50027  0.75186  1.0000
  Sr  Sr1       1.0  0.00047  0.33358  0.41889  1.0000
  Sr  Sr2       1.0  0.50051  0.83358  0.41891  1.0000
  Sr  Sr3       1.0  0.00051  0.33358  0.08556  1.0000
  Sr  Sr4       1.0  0.50054  0.83360  0.08556  1.0000
  Sr  Sr5       1.0  0.00045  0.33360  0.75220  1.0000
  Sr  Sr6       1.0  0.50053  0.83361  0.75221  1.0000
  Sr  Sr7       1.0  0.00048  0.66696  0.58549  1.0000
  Sr  Sr8       1.0  0.50046  0.16694  0.58550  1.0000
  Sr  Sr9       1.0  0.00046  0.66696  0.25211  1.0000
  Sr  Sr10      1.0  0.50048  0.16695  0.25212  1.0000
  Sr  Sr11      1.0  0.00051  0.66692  0.91882  1.0000
  Sr  Sr12      1.0  0.50050  0.16697  0.91884  1.0000
  In  In1       1.0  0.32431  0.32590  0.41880  1.0000
  In  In2       1.0  0.82432  0.82592  0.41879  1.0000
  In  In3       1.0  0.32432  0.32590  0.08547  1.0000
  In  In4       1.0  0.82432  0.82594  0.08546  1.0000
  In  In5       1.0  0.32431  0.32589  0.75216  1.0000
  In  In6       1.0  0.82431  0.82594  0.75215  1.0000
  In  In7       1.0  0.82697  0.17554  0.41880  1.0000
  In  In8       1.0  0.32697  0.67552  0.41878  1.0000
  In  In9       1.0  0.82701  0.17554  0.08550  1.0000
  In  In10      1.0  0.32701  0.67558  0.08545  1.0000
  In  In11      1.0  0.82700  0.17554  0.75212  1.0000
  In  In12      1.0  0.32703  0.67556  0.75215  1.0000
  In  In13      1.0  0.85019  0.49937  0.41882  1.0000
  In  In14      1.0  0.35014  0.99937  0.41878  1.0000
  In  In15      1.0  0.85016  0.49936  0.08551  1.0000
  In  In16      1.0  0.35019  0.99934  0.08545  1.0000
  In  In17      1.0  0.85015  0.49935  0.75215  1.0000
  In  In18      1.0  0.35017  0.99937  0.75213  1.0000
  In  In19      1.0  0.67568  0.67470  0.58548  1.0000
  In  In20      1.0  0.17567  0.17472  0.58549  1.0000
  In  In21      1.0  0.67563  0.67472  0.25216  1.0000
  In  In22      1.0  0.17563  0.17468  0.25212  1.0000
  In  In23      1.0  0.67568  0.67471  0.91881  1.0000
  In  In24      1.0  0.17564  0.17470  0.91881  1.0000
  In  In25      1.0  0.17459  0.82551  0.58548  1.0000
  In  In26      1.0  0.67458  0.32551  0.58550  1.0000
  In  In27      1.0  0.17462  0.82553  0.25215  1.0000
  In  In28      1.0  0.67457  0.32550  0.25214  1.0000
  In  In29      1.0  0.17458  0.82549  0.91878  1.0000
  In  In30      1.0  0.67459  0.32548  0.91882  1.0000
  In  In31      1.0  0.15132  0.50060  0.58549  1.0000
  In  In32      1.0  0.65128  0.00064  0.58546  1.0000
  In  In33      1.0  0.15131  0.50060  0.25217  1.0000
  In  In34      1.0  0.65125  0.00062  0.25218  1.0000
  In  In35      1.0  0.15128  0.50062  0.91881  1.0000
  In  In36      1.0  0.65129  0.00063  0.91880  1.0000
  O   O1        1.0  0.13628  0.73909  0.41880  1.0000
  O   O2        1.0  0.63627  0.23908  0.41879  1.0000
  O   O3        1.0  0.13629  0.73908  0.08547  1.0000
  O   O4        1.0  0.63627  0.23911  0.08549  1.0000
  O   O5        1.0  0.13630  0.73907  0.75215  1.0000
  O   O6        1.0  0.63627  0.23907  0.75216  1.0000
  O   O7        1.0  0.04083  0.56299  0.41883  1.0000
  O   O8        1.0  0.54083  0.06298  0.41879  1.0000
  O   O9        1.0  0.04081  0.56296  0.08549  1.0000
  O   O10       1.0  0.54081  0.06295  0.08550  1.0000
  O   O11       1.0  0.04082  0.56296  0.75214  1.0000
  O   O12       1.0  0.54081  0.06299  0.75214  1.0000
  O   O13       1.0  0.82442  0.69879  0.41880  1.0000
  O   O14       1.0  0.32440  0.19877  0.41886  1.0000
  O   O15       1.0  0.82444  0.69879  0.08545  1.0000
  O   O16       1.0  0.32442  0.19878  0.08548  1.0000
  O   O17       1.0  0.82445  0.69879  0.75215  1.0000
  O   O18       1.0  0.32439  0.19879  0.75215  1.0000
  O   O19       1.0  0.86197  0.26010  0.58550  1.0000
  O   O20       1.0  0.36193  0.76010  0.58550  1.0000
  O   O21       1.0  0.86194  0.26009  0.25219  1.0000
  O   O22       1.0  0.36197  0.76008  0.25217  1.0000
  O   O23       1.0  0.86196  0.26009  0.91885  1.0000
  O   O24       1.0  0.36199  0.76012  0.91883  1.0000
  O   O25       1.0  0.95950  0.43960  0.58551  1.0000
  O   O26       1.0  0.45951  0.93963  0.58553  1.0000
  O   O27       1.0  0.95950  0.43963  0.25219  1.0000
  O   O28       1.0  0.45949  0.93960  0.25218  1.0000
  O   O29       1.0  0.95951  0.43962  0.91885  1.0000
  O   O30       1.0  0.45953  0.93963  0.91883  1.0000
  O   O31       1.0  0.18003  0.30110  0.58550  1.0000
  O   O32       1.0  0.68004  0.80108  0.58552  1.0000
  O   O33       1.0  0.18006  0.30109  0.25215  1.0000
  O   O34       1.0  0.68005  0.80110  0.25219  1.0000
  O   O35       1.0  0.18002  0.30112  0.91884  1.0000
  O   O36       1.0  0.68006  0.80111  0.91884  1.0000
  O   O37       1.0  0.71469  0.40159  0.41884  1.0000
  O   O38       1.0  0.21459  0.90158  0.41879  1.0000
  O   O39       1.0  0.71468  0.40159  0.08549  1.0000
  O   O40       1.0  0.21464  0.90156  0.08545  1.0000
  O   O41       1.0  0.71471  0.40155  0.75210  1.0000
  O   O42       1.0  0.21465  0.90157  0.75211  1.0000
  O   O43       1.0  0.24544  0.44257  0.41880  1.0000
  O   O44       1.0  0.74540  0.94256  0.41881  1.0000
  O   O45       1.0  0.24536  0.44256  0.08550  1.0000
  O   O46       1.0  0.74542  0.94258  0.08545  1.0000
  O   O47       1.0  0.24544  0.44257  0.75217  1.0000
  O   O48       1.0  0.74538  0.94257  0.75214  1.0000
  O   O49       1.0  0.04146  0.15672  0.41879  1.0000
  O   O50       1.0  0.54147  0.65669  0.41879  1.0000
  O   O51       1.0  0.04146  0.15672  0.08547  1.0000
  O   O52       1.0  0.54149  0.65673  0.08543  1.0000
  O   O53       1.0  0.04150  0.15671  0.75215  1.0000
  O   O54       1.0  0.54150  0.65674  0.75213  1.0000
  O   O55       1.0  0.30517  0.59163  0.58547  1.0000
  O   O56       1.0  0.80522  0.09167  0.58545  1.0000
  O   O57       1.0  0.30518  0.59169  0.25209  1.0000
  O   O58       1.0  0.80523  0.09167  0.25212  1.0000
  O   O59       1.0  0.30513  0.59170  0.91878  1.0000
  O   O60       1.0  0.80520  0.09168  0.91877  1.0000
  O   O61       1.0  0.73533  0.55225  0.58546  1.0000
  O   O62       1.0  0.23526  0.05224  0.58544  1.0000
  O   O63       1.0  0.73533  0.55225  0.25213  1.0000
  O   O64       1.0  0.23532  0.05223  0.25206  1.0000
  O   O65       1.0  0.73530  0.55224  0.91879  1.0000
  O   O66       1.0  0.23528  0.05224  0.91875  1.0000
  O   O67       1.0  0.96109  0.85692  0.58545  1.0000
  O   O68       1.0  0.46104  0.35693  0.58548  1.0000
  O   O69       1.0  0.96106  0.85694  0.25213  1.0000
  O   O70       1.0  0.46106  0.35693  0.25212  1.0000
  O   O71       1.0  0.96104  0.85694  0.91878  1.0000
  O   O72       1.0  0.46108  0.35693  0.91877  1.0000
