data_image0
_chemical_formula_structural       Cs32Ga32O64
_chemical_formula_sum              "Cs32 Ga32 O64"
_cell_length_a       11.6872
_cell_length_b       11.7308
_cell_length_c       16.6941
_cell_angle_alpha    90
_cell_angle_beta     90
_cell_angle_gamma    90

_space_group_name_H-M_alt    "P 1"
_space_group_IT_number       1

loop_
  _space_group_symop_operation_xyz
  'x, y, z'

loop_
  _atom_site_type_symbol
  _atom_site_label
  _atom_site_symmetry_multiplicity
  _atom_site_fract_x
  _atom_site_fract_y
  _atom_site_fract_z
  _atom_site_occupancy
  Cs  Cs1       1.0  0.14614  0.25744  0.18740  1.0000
  Cs  Cs2       1.0  0.64595  0.25741  0.18731  1.0000
  Cs  Cs3       1.0  0.35488  0.74324  0.81313  1.0000
  Cs  Cs4       1.0  0.85477  0.74344  0.81327  1.0000
  Cs  Cs5       1.0  0.10470  0.74334  0.68726  1.0000
  Cs  Cs6       1.0  0.60495  0.74349  0.68731  1.0000
  Cs  Cs7       1.0  0.35484  0.75742  0.31306  1.0000
  Cs  Cs8       1.0  0.85518  0.75720  0.31344  1.0000
  Cs  Cs9       1.0  0.39607  0.25748  0.31338  1.0000
  Cs  Cs10      1.0  0.89591  0.25752  0.31307  1.0000
  Cs  Cs11      1.0  0.14569  0.24343  0.68743  1.0000
  Cs  Cs12      1.0  0.64598  0.24338  0.68754  1.0000
  Cs  Cs13      1.0  0.39580  0.24368  0.81321  1.0000
  Cs  Cs14      1.0  0.89597  0.24339  0.81335  1.0000
  Cs  Cs15      1.0  0.10481  0.75762  0.18723  1.0000
  Cs  Cs16      1.0  0.60518  0.75743  0.18739  1.0000
  Cs  Cs17      1.0  0.12631  0.00850  0.06330  1.0000
  Cs  Cs18      1.0  0.62604  0.00844  0.06305  1.0000
  Cs  Cs19      1.0  0.37472  0.99235  0.93741  1.0000
  Cs  Cs20      1.0  0.87506  0.99261  0.93762  1.0000
  Cs  Cs21      1.0  0.12484  0.99257  0.56312  1.0000
  Cs  Cs22      1.0  0.62502  0.99270  0.56320  1.0000
  Cs  Cs23      1.0  0.37493  0.50845  0.43760  1.0000
  Cs  Cs24      1.0  0.87494  0.50795  0.43761  1.0000
  Cs  Cs25      1.0  0.37628  0.00827  0.43759  1.0000
  Cs  Cs26      1.0  0.87615  0.00831  0.43733  1.0000
  Cs  Cs27      1.0  0.12627  0.49265  0.56312  1.0000
  Cs  Cs28      1.0  0.62629  0.49247  0.56318  1.0000
  Cs  Cs29      1.0  0.37594  0.49248  0.93761  1.0000
  Cs  Cs30      1.0  0.87617  0.49258  0.93744  1.0000
  Cs  Cs31      1.0  0.12479  0.50838  0.06328  1.0000
  Cs  Cs32      1.0  0.62479  0.50824  0.06302  1.0000
  Ga  Ga1       1.0  0.12740  0.00489  0.31253  1.0000
  Ga  Ga2       1.0  0.62736  0.00466  0.31247  1.0000
  Ga  Ga3       1.0  0.37345  0.99612  0.68827  1.0000
  Ga  Ga4       1.0  0.87348  0.99589  0.68820  1.0000
  Ga  Ga5       1.0  0.12348  0.99589  0.81248  1.0000
  Ga  Ga6       1.0  0.62353  0.99597  0.81246  1.0000
  Ga  Ga7       1.0  0.37355  0.50465  0.18808  1.0000
  Ga  Ga8       1.0  0.87353  0.50488  0.18811  1.0000
  Ga  Ga9       1.0  0.37744  0.00469  0.18818  1.0000
  Ga  Ga10      1.0  0.87741  0.00478  0.18809  1.0000
  Ga  Ga11      1.0  0.12743  0.49608  0.81247  1.0000
  Ga  Ga12      1.0  0.62743  0.49617  0.81243  1.0000
  Ga  Ga13      1.0  0.37741  0.49606  0.68818  1.0000
  Ga  Ga14      1.0  0.87745  0.49606  0.68815  1.0000
  Ga  Ga15      1.0  0.12354  0.50486  0.31244  1.0000
  Ga  Ga16      1.0  0.62353  0.50481  0.31243  1.0000
  Ga  Ga17      1.0  0.13900  0.25710  0.43756  1.0000
  Ga  Ga18      1.0  0.63879  0.25685  0.43758  1.0000
  Ga  Ga19      1.0  0.36180  0.74387  0.56301  1.0000
  Ga  Ga20      1.0  0.86177  0.74378  0.56291  1.0000
  Ga  Ga21      1.0  0.11186  0.74375  0.93762  1.0000
  Ga  Ga22      1.0  0.61181  0.74389  0.93766  1.0000
  Ga  Ga23      1.0  0.36175  0.75688  0.06301  1.0000
  Ga  Ga24      1.0  0.86176  0.75701  0.06294  1.0000
  Ga  Ga25      1.0  0.38912  0.25684  0.06296  1.0000
  Ga  Ga26      1.0  0.88916  0.25703  0.06296  1.0000
  Ga  Ga27      1.0  0.13906  0.24371  0.93755  1.0000
  Ga  Ga28      1.0  0.63901  0.24376  0.93751  1.0000
  Ga  Ga29      1.0  0.38887  0.24385  0.56303  1.0000
  Ga  Ga30      1.0  0.88896  0.24368  0.56297  1.0000
  Ga  Ga31      1.0  0.11184  0.75701  0.43759  1.0000
  Ga  Ga32      1.0  0.61180  0.75695  0.43759  1.0000
  O   O1        1.0  0.01963  0.48809  0.22940  1.0000
  O   O2        1.0  0.51966  0.48790  0.22936  1.0000
  O   O3        1.0  0.48133  0.51283  0.77116  1.0000
  O   O4        1.0  0.98134  0.51285  0.77118  1.0000
  O   O5        1.0  0.23133  0.51283  0.72948  1.0000
  O   O6        1.0  0.73136  0.51257  0.72941  1.0000
  O   O7        1.0  0.48133  0.98770  0.27117  1.0000
  O   O8        1.0  0.98138  0.98829  0.27114  1.0000
  O   O9        1.0  0.26961  0.48789  0.27114  1.0000
  O   O10       1.0  0.76978  0.48839  0.27130  1.0000
  O   O11       1.0  0.01968  0.01277  0.72937  1.0000
  O   O12       1.0  0.51959  0.01266  0.72947  1.0000
  O   O13       1.0  0.26968  0.01297  0.77138  1.0000
  O   O14       1.0  0.76964  0.01289  0.77125  1.0000
  O   O15       1.0  0.23140  0.98809  0.22956  1.0000
  O   O16       1.0  0.73135  0.98804  0.22944  1.0000
  O   O17       1.0  0.03061  0.27700  0.01485  1.0000
  O   O18       1.0  0.53058  0.27709  0.01488  1.0000
  O   O19       1.0  0.47039  0.72357  0.98584  1.0000
  O   O20       1.0  0.97029  0.72386  0.98566  1.0000
  O   O21       1.0  0.22035  0.72399  0.51486  1.0000
  O   O22       1.0  0.72039  0.72371  0.51478  1.0000
  O   O23       1.0  0.47039  0.77716  0.48581  1.0000
  O   O24       1.0  0.97039  0.77692  0.48575  1.0000
  O   O25       1.0  0.28035  0.27725  0.48582  1.0000
  O   O26       1.0  0.78023  0.27691  0.48582  1.0000
  O   O27       1.0  0.03046  0.22382  0.51483  1.0000
  O   O28       1.0  0.53033  0.22373  0.51491  1.0000
  O   O29       1.0  0.28057  0.22366  0.98569  1.0000
  O   O30       1.0  0.78057  0.22376  0.98566  1.0000
  O   O31       1.0  0.22021  0.77692  0.01498  1.0000
  O   O32       1.0  0.72018  0.77724  0.01501  1.0000
  O   O33       1.0  0.14795  0.14705  0.35864  1.0000
  O   O34       1.0  0.64781  0.14684  0.35860  1.0000
  O   O35       1.0  0.35284  0.85389  0.64211  1.0000
  O   O36       1.0  0.85271  0.85377  0.64198  1.0000
  O   O37       1.0  0.10306  0.85363  0.85850  1.0000
  O   O38       1.0  0.60292  0.85399  0.85875  1.0000
  O   O39       1.0  0.35269  0.64673  0.14191  1.0000
  O   O40       1.0  0.85280  0.64697  0.14195  1.0000
  O   O41       1.0  0.39815  0.14686  0.14203  1.0000
  O   O42       1.0  0.89813  0.14689  0.14189  1.0000
  O   O43       1.0  0.14778  0.35390  0.85864  1.0000
  O   O44       1.0  0.64799  0.35396  0.85860  1.0000
  O   O45       1.0  0.39779  0.35384  0.64207  1.0000
  O   O46       1.0  0.89786  0.35378  0.64201  1.0000
  O   O47       1.0  0.10273  0.64697  0.35861  1.0000
  O   O48       1.0  0.60246  0.64690  0.35859  1.0000
  O   O49       1.0  0.09895  0.39438  0.38982  1.0000
  O   O50       1.0  0.59903  0.39420  0.38973  1.0000
  O   O51       1.0  0.40161  0.60645  0.61071  1.0000
  O   O52       1.0  0.90158  0.60646  0.61069  1.0000
  O   O53       1.0  0.15174  0.60638  0.88994  1.0000
  O   O54       1.0  0.65182  0.60667  0.88979  1.0000
  O   O55       1.0  0.40159  0.89422  0.11078  1.0000
  O   O56       1.0  0.90190  0.89428  0.11074  1.0000
  O   O57       1.0  0.34925  0.39419  0.11067  1.0000
  O   O58       1.0  0.84910  0.39428  0.11082  1.0000
  O   O59       1.0  0.09902  0.10630  0.88993  1.0000
  O   O60       1.0  0.59903  0.10645  0.88982  1.0000
  O   O61       1.0  0.34902  0.10650  0.61080  1.0000
  O   O62       1.0  0.84916  0.10627  0.61071  1.0000
  O   O63       1.0  0.15160  0.89447  0.38994  1.0000
  O   O64       1.0  0.65172  0.89438  0.38998  1.0000
