data_image0
_chemical_formula_structural       Rb32Sn48O112
_chemical_formula_sum              "Rb32 Sn48 O112"
_cell_length_a       17.0686
_cell_length_b       12.7303
_cell_length_c       13.1345
_cell_angle_alpha    89.9995
_cell_angle_beta     89.9974
_cell_angle_gamma    90.0021

_space_group_name_H-M_alt    "P 1"
_space_group_IT_number       1

loop_
  _space_group_symop_operation_xyz
  'x, y, z'

loop_
  _atom_site_type_symbol
  _atom_site_label
  _atom_site_symmetry_multiplicity
  _atom_site_fract_x
  _atom_site_fract_y
  _atom_site_fract_z
  _atom_site_occupancy
  Rb  Rb1       1.0  0.30275  0.06282  0.44141  1.0000
  Rb  Rb2       1.0  0.30264  0.31281  0.44141  1.0000
  Rb  Rb3       1.0  0.30276  0.56284  0.44136  1.0000
  Rb  Rb4       1.0  0.30260  0.81284  0.44136  1.0000
  Rb  Rb5       1.0  0.69784  0.18774  0.55934  1.0000
  Rb  Rb6       1.0  0.69788  0.43776  0.55931  1.0000
  Rb  Rb7       1.0  0.69790  0.68774  0.55936  1.0000
  Rb  Rb8       1.0  0.69780  0.93774  0.55931  1.0000
  Rb  Rb9       1.0  0.19786  0.18788  0.94143  1.0000
  Rb  Rb10      1.0  0.19778  0.43789  0.94138  1.0000
  Rb  Rb11      1.0  0.19778  0.68786  0.94136  1.0000
  Rb  Rb12      1.0  0.19785  0.93786  0.94141  1.0000
  Rb  Rb13      1.0  0.80251  0.06274  0.05928  1.0000
  Rb  Rb14      1.0  0.80276  0.31273  0.05935  1.0000
  Rb  Rb15      1.0  0.80269  0.56275  0.05936  1.0000
  Rb  Rb16      1.0  0.80278  0.81275  0.05938  1.0000
  Rb  Rb17      1.0  0.43594  0.06291  0.89621  1.0000
  Rb  Rb18      1.0  0.43590  0.31293  0.89621  1.0000
  Rb  Rb19      1.0  0.43590  0.56292  0.89623  1.0000
  Rb  Rb20      1.0  0.43593  0.81289  0.89617  1.0000
  Rb  Rb21      1.0  0.56472  0.18792  0.10453  1.0000
  Rb  Rb22      1.0  0.56469  0.43791  0.10457  1.0000
  Rb  Rb23      1.0  0.56468  0.68790  0.10451  1.0000
  Rb  Rb24      1.0  0.56466  0.93792  0.10454  1.0000
  Rb  Rb25      1.0  0.06462  0.18789  0.39627  1.0000
  Rb  Rb26      1.0  0.06471  0.43792  0.39620  1.0000
  Rb  Rb27      1.0  0.06471  0.68792  0.39621  1.0000
  Rb  Rb28      1.0  0.06465  0.93792  0.39620  1.0000
  Rb  Rb29      1.0  0.93597  0.06298  0.60452  1.0000
  Rb  Rb30      1.0  0.93589  0.31299  0.60450  1.0000
  Rb  Rb31      1.0  0.93596  0.56299  0.60460  1.0000
  Rb  Rb32      1.0  0.93595  0.81299  0.60458  1.0000
  Sn  Sn1       1.0  0.01716  0.06288  0.11025  1.0000
  Sn  Sn2       1.0  0.01722  0.31287  0.11026  1.0000
  Sn  Sn3       1.0  0.01716  0.56290  0.11027  1.0000
  Sn  Sn4       1.0  0.01721  0.81291  0.11027  1.0000
  Sn  Sn5       1.0  0.98338  0.18792  0.89049  1.0000
  Sn  Sn6       1.0  0.98330  0.43791  0.89050  1.0000
  Sn  Sn7       1.0  0.98335  0.68790  0.89049  1.0000
  Sn  Sn8       1.0  0.98334  0.93791  0.89047  1.0000
  Sn  Sn9       1.0  0.48334  0.18788  0.61029  1.0000
  Sn  Sn10      1.0  0.48339  0.43790  0.61030  1.0000
  Sn  Sn11      1.0  0.48335  0.68789  0.61030  1.0000
  Sn  Sn12      1.0  0.48336  0.93788  0.61029  1.0000
  Sn  Sn13      1.0  0.51719  0.06289  0.39052  1.0000
  Sn  Sn14      1.0  0.51720  0.31288  0.39052  1.0000
  Sn  Sn15      1.0  0.51721  0.56288  0.39054  1.0000
  Sn  Sn16      1.0  0.51719  0.81288  0.39052  1.0000
  Sn  Sn17      1.0  0.29540  0.06292  0.70718  1.0000
  Sn  Sn18      1.0  0.29541  0.31292  0.70718  1.0000
  Sn  Sn19      1.0  0.29541  0.56290  0.70715  1.0000
  Sn  Sn20      1.0  0.29542  0.81291  0.70715  1.0000
  Sn  Sn21      1.0  0.70516  0.18790  0.29363  1.0000
  Sn  Sn22      1.0  0.70515  0.43789  0.29361  1.0000
  Sn  Sn23      1.0  0.70514  0.68789  0.29361  1.0000
  Sn  Sn24      1.0  0.70514  0.93791  0.29359  1.0000
  Sn  Sn25      1.0  0.20515  0.18788  0.20712  1.0000
  Sn  Sn26      1.0  0.20519  0.43789  0.20708  1.0000
  Sn  Sn27      1.0  0.20517  0.68790  0.20706  1.0000
  Sn  Sn28      1.0  0.20516  0.93789  0.20712  1.0000
  Sn  Sn29      1.0  0.79543  0.06290  0.79354  1.0000
  Sn  Sn30      1.0  0.79542  0.31294  0.79356  1.0000
  Sn  Sn31      1.0  0.79540  0.56292  0.79358  1.0000
  Sn  Sn32      1.0  0.79542  0.81290  0.79357  1.0000
  Sn  Sn33      1.0  0.37217  0.06294  0.17168  1.0000
  Sn  Sn34      1.0  0.37221  0.31291  0.17167  1.0000
  Sn  Sn35      1.0  0.37219  0.56291  0.17167  1.0000
  Sn  Sn36      1.0  0.37219  0.81292  0.17165  1.0000
  Sn  Sn37      1.0  0.62844  0.18793  0.82905  1.0000
  Sn  Sn38      1.0  0.62842  0.43791  0.82907  1.0000
  Sn  Sn39      1.0  0.62843  0.68791  0.82909  1.0000
  Sn  Sn40      1.0  0.62844  0.93791  0.82906  1.0000
  Sn  Sn41      1.0  0.12842  0.18793  0.67170  1.0000
  Sn  Sn42      1.0  0.12841  0.43791  0.67170  1.0000
  Sn  Sn43      1.0  0.12845  0.68791  0.67167  1.0000
  Sn  Sn44      1.0  0.12844  0.93793  0.67167  1.0000
  Sn  Sn45      1.0  0.87214  0.06292  0.32905  1.0000
  Sn  Sn46      1.0  0.87217  0.31295  0.32906  1.0000
  Sn  Sn47      1.0  0.87218  0.56294  0.32909  1.0000
  Sn  Sn48      1.0  0.87215  0.81293  0.32907  1.0000
  O   O1        1.0  0.09969  0.06293  0.57920  1.0000
  O   O2        1.0  0.09968  0.31292  0.57919  1.0000
  O   O3        1.0  0.09969  0.56290  0.57919  1.0000
  O   O4        1.0  0.09969  0.81292  0.57917  1.0000
  O   O5        1.0  0.90086  0.18793  0.42154  1.0000
  O   O6        1.0  0.90093  0.43794  0.42156  1.0000
  O   O7        1.0  0.90094  0.68795  0.42155  1.0000
  O   O8        1.0  0.90088  0.93793  0.42157  1.0000
  O   O9        1.0  0.40095  0.18791  0.07918  1.0000
  O   O10       1.0  0.40096  0.43792  0.07919  1.0000
  O   O11       1.0  0.40095  0.68792  0.07918  1.0000
  O   O12       1.0  0.40093  0.93795  0.07917  1.0000
  O   O13       1.0  0.59973  0.06291  0.92155  1.0000
  O   O14       1.0  0.59971  0.31293  0.92155  1.0000
  O   O15       1.0  0.59970  0.56291  0.92158  1.0000
  O   O16       1.0  0.59971  0.81292  0.92157  1.0000
  O   O17       1.0  0.17889  0.06292  0.75949  1.0000
  O   O18       1.0  0.17887  0.31290  0.75949  1.0000
  O   O19       1.0  0.17889  0.56292  0.75948  1.0000
  O   O20       1.0  0.17889  0.81291  0.75946  1.0000
  O   O21       1.0  0.82171  0.18791  0.24127  1.0000
  O   O22       1.0  0.82170  0.43791  0.24130  1.0000
  O   O23       1.0  0.82168  0.68791  0.24130  1.0000
  O   O24       1.0  0.82168  0.93790  0.24127  1.0000
  O   O25       1.0  0.32170  0.18792  0.25945  1.0000
  O   O26       1.0  0.32172  0.43786  0.25944  1.0000
  O   O27       1.0  0.32170  0.68790  0.25942  1.0000
  O   O28       1.0  0.32171  0.93790  0.25944  1.0000
  O   O29       1.0  0.67890  0.06288  0.74124  1.0000
  O   O30       1.0  0.67889  0.31293  0.74122  1.0000
  O   O31       1.0  0.67886  0.56290  0.74127  1.0000
  O   O32       1.0  0.67887  0.81289  0.74125  1.0000
  O   O33       1.0  0.17513  0.06289  0.29745  1.0000
  O   O34       1.0  0.17507  0.31290  0.29736  1.0000
  O   O35       1.0  0.17513  0.56289  0.29737  1.0000
  O   O36       1.0  0.17504  0.81286  0.29733  1.0000
  O   O37       1.0  0.82549  0.18792  0.70329  1.0000
  O   O38       1.0  0.82549  0.43794  0.70331  1.0000
  O   O39       1.0  0.82550  0.68791  0.70332  1.0000
  O   O40       1.0  0.82547  0.93789  0.70325  1.0000
  O   O41       1.0  0.32549  0.18791  0.79745  1.0000
  O   O42       1.0  0.32545  0.43792  0.79746  1.0000
  O   O43       1.0  0.32547  0.68792  0.79743  1.0000
  O   O44       1.0  0.32548  0.93790  0.79741  1.0000
  O   O45       1.0  0.67507  0.06291  0.20334  1.0000
  O   O46       1.0  0.67511  0.31290  0.20334  1.0000
  O   O47       1.0  0.67508  0.56290  0.20334  1.0000
  O   O48       1.0  0.67506  0.81289  0.20332  1.0000
  O   O49       1.0  0.24947  0.06288  0.11542  1.0000
  O   O50       1.0  0.24948  0.31288  0.11539  1.0000
  O   O51       1.0  0.24951  0.56291  0.11536  1.0000
  O   O52       1.0  0.24948  0.81289  0.11538  1.0000
  O   O53       1.0  0.75111  0.18791  0.88526  1.0000
  O   O54       1.0  0.75110  0.43788  0.88531  1.0000
  O   O55       1.0  0.75111  0.68790  0.88528  1.0000
  O   O56       1.0  0.75112  0.93790  0.88527  1.0000
  O   O57       1.0  0.25110  0.18792  0.61544  1.0000
  O   O58       1.0  0.25110  0.43790  0.61544  1.0000
  O   O59       1.0  0.25112  0.68788  0.61542  1.0000
  O   O60       1.0  0.25109  0.93793  0.61545  1.0000
  O   O61       1.0  0.74947  0.06288  0.38531  1.0000
  O   O62       1.0  0.74948  0.31290  0.38532  1.0000
  O   O63       1.0  0.74947  0.56289  0.38532  1.0000
  O   O64       1.0  0.74945  0.81290  0.38528  1.0000
  O   O65       1.0  0.40396  0.06290  0.63258  1.0000
  O   O66       1.0  0.40399  0.31292  0.63258  1.0000
  O   O67       1.0  0.40400  0.56289  0.63259  1.0000
  O   O68       1.0  0.40397  0.81289  0.63252  1.0000
  O   O69       1.0  0.59658  0.18789  0.36827  1.0000
  O   O70       1.0  0.59659  0.43788  0.36824  1.0000
  O   O71       1.0  0.59659  0.68791  0.36830  1.0000
  O   O72       1.0  0.59657  0.93790  0.36824  1.0000
  O   O73       1.0  0.09658  0.18788  0.13254  1.0000
  O   O74       1.0  0.09660  0.43790  0.13247  1.0000
  O   O75       1.0  0.09655  0.68787  0.13251  1.0000
  O   O76       1.0  0.09657  0.93791  0.13250  1.0000
  O   O77       1.0  0.90397  0.06292  0.86818  1.0000
  O   O78       1.0  0.90397  0.31291  0.86824  1.0000
  O   O79       1.0  0.90396  0.56287  0.86821  1.0000
  O   O80       1.0  0.90398  0.81292  0.86821  1.0000
  O   O81       1.0  0.47423  0.06306  0.25023  1.0000
  O   O82       1.0  0.47428  0.31298  0.25022  1.0000
  O   O83       1.0  0.47424  0.56297  0.25027  1.0000
  O   O84       1.0  0.47429  0.81299  0.25019  1.0000
  O   O85       1.0  0.52632  0.18803  0.75055  1.0000
  O   O86       1.0  0.52632  0.43799  0.75059  1.0000
  O   O87       1.0  0.52632  0.68799  0.75059  1.0000
  O   O88       1.0  0.52630  0.93795  0.75059  1.0000
  O   O89       1.0  0.02633  0.18800  0.75021  1.0000
  O   O90       1.0  0.02633  0.43799  0.75024  1.0000
  O   O91       1.0  0.02636  0.68809  0.75023  1.0000
  O   O92       1.0  0.02635  0.93801  0.75021  1.0000
  O   O93       1.0  0.97423  0.06303  0.25054  1.0000
  O   O94       1.0  0.97431  0.31301  0.25059  1.0000
  O   O95       1.0  0.97426  0.56300  0.25056  1.0000
  O   O96       1.0  0.97424  0.81303  0.25053  1.0000
  O   O97       1.0  0.55097  0.06289  0.55060  1.0000
  O   O98       1.0  0.55099  0.31288  0.55056  1.0000
  O   O99       1.0  0.55099  0.56289  0.55057  1.0000
  O   O100      1.0  0.55098  0.81290  0.55058  1.0000
  O   O101      1.0  0.44955  0.18789  0.45025  1.0000
  O   O102      1.0  0.44958  0.43786  0.45028  1.0000
  O   O103      1.0  0.44955  0.68789  0.45024  1.0000
  O   O104      1.0  0.44957  0.93788  0.45022  1.0000
  O   O105      1.0  0.94958  0.18787  0.05055  1.0000
  O   O106      1.0  0.94953  0.43788  0.05059  1.0000
  O   O107      1.0  0.94955  0.68791  0.05057  1.0000
  O   O108      1.0  0.94953  0.93790  0.05055  1.0000
  O   O109      1.0  0.05099  0.06292  0.95022  1.0000
  O   O110      1.0  0.05099  0.31290  0.95020  1.0000
  O   O111      1.0  0.05095  0.56291  0.95023  1.0000
  O   O112      1.0  0.05096  0.81287  0.95021  1.0000
