data_image0
_chemical_formula_structural       Ca36Ga48O108
_chemical_formula_sum              "Ca36 Ga48 O108"
_cell_length_a       14.3836
_cell_length_b       16.8094
_cell_length_c       10.6444
_cell_angle_alpha    90.0043
_cell_angle_beta     90.001
_cell_angle_gamma    89.9978

_space_group_name_H-M_alt    "P 1"
_space_group_IT_number       1

loop_
  _space_group_symop_operation_xyz
  'x, y, z'

loop_
  _atom_site_type_symbol
  _atom_site_label
  _atom_site_symmetry_multiplicity
  _atom_site_fract_x
  _atom_site_fract_y
  _atom_site_fract_z
  _atom_site_occupancy
  Ca  Ca1       1.0  0.00038  0.00025  0.49877  1.0000
  Ca  Ca2       1.0  0.00034  0.00029  0.99875  1.0000
  Ca  Ca3       1.0  0.50032  0.50029  0.49874  1.0000
  Ca  Ca4       1.0  0.50037  0.50026  0.99873  1.0000
  Ca  Ca5       1.0  0.50032  0.90224  0.04589  1.0000
  Ca  Ca6       1.0  0.50028  0.90229  0.54582  1.0000
  Ca  Ca7       1.0  0.00040  0.40227  0.04605  1.0000
  Ca  Ca8       1.0  0.00040  0.40232  0.54604  1.0000
  Ca  Ca9       1.0  0.50037  0.09840  0.04584  1.0000
  Ca  Ca10      1.0  0.50026  0.09838  0.54598  1.0000
  Ca  Ca11      1.0  0.00034  0.59829  0.04597  1.0000
  Ca  Ca12      1.0  0.00041  0.59837  0.54601  1.0000
  Ca  Ca13      1.0  0.37064  0.71022  0.01730  1.0000
  Ca  Ca14      1.0  0.37078  0.71011  0.51737  1.0000
  Ca  Ca15      1.0  0.87078  0.21011  0.01735  1.0000
  Ca  Ca16      1.0  0.87063  0.21018  0.51739  1.0000
  Ca  Ca17      1.0  0.63000  0.29038  0.01733  1.0000
  Ca  Ca18      1.0  0.62990  0.29041  0.51735  1.0000
  Ca  Ca19      1.0  0.12998  0.79043  0.01735  1.0000
  Ca  Ca20      1.0  0.13000  0.79033  0.51737  1.0000
  Ca  Ca21      1.0  0.62992  0.71007  0.01737  1.0000
  Ca  Ca22      1.0  0.62999  0.71026  0.51733  1.0000
  Ca  Ca23      1.0  0.13007  0.21015  0.01737  1.0000
  Ca  Ca24      1.0  0.12992  0.21015  0.51741  1.0000
  Ca  Ca25      1.0  0.37070  0.29044  0.01726  1.0000
  Ca  Ca26      1.0  0.37065  0.29033  0.51733  1.0000
  Ca  Ca27      1.0  0.87065  0.79038  0.01751  1.0000
  Ca  Ca28      1.0  0.87070  0.79038  0.51739  1.0000
  Ca  Ca29      1.0  0.76039  0.00015  0.02487  1.0000
  Ca  Ca30      1.0  0.76033  0.00027  0.52482  1.0000
  Ca  Ca31      1.0  0.26038  0.50029  0.02485  1.0000
  Ca  Ca32      1.0  0.26035  0.50026  0.52476  1.0000
  Ca  Ca33      1.0  0.24022  0.00033  0.02473  1.0000
  Ca  Ca34      1.0  0.24026  0.00025  0.52464  1.0000
  Ca  Ca35      1.0  0.74031  0.50025  0.02473  1.0000
  Ca  Ca36      1.0  0.74030  0.50034  0.52480  1.0000
  Ga  Ga1       1.0  0.10907  0.09433  0.25595  1.0000
  Ga  Ga2       1.0  0.10909  0.09439  0.75588  1.0000
  Ga  Ga3       1.0  0.60907  0.59439  0.25593  1.0000
  Ga  Ga4       1.0  0.60902  0.59439  0.75581  1.0000
  Ga  Ga5       1.0  0.10904  0.90611  0.25582  1.0000
  Ga  Ga6       1.0  0.10914  0.90618  0.75584  1.0000
  Ga  Ga7       1.0  0.60910  0.40620  0.25586  1.0000
  Ga  Ga8       1.0  0.60908  0.40613  0.75584  1.0000
  Ga  Ga9       1.0  0.89155  0.09437  0.25594  1.0000
  Ga  Ga10      1.0  0.89160  0.09438  0.75589  1.0000
  Ga  Ga11      1.0  0.39161  0.59439  0.25587  1.0000
  Ga  Ga12      1.0  0.39149  0.59438  0.75590  1.0000
  Ga  Ga13      1.0  0.89145  0.90616  0.25590  1.0000
  Ga  Ga14      1.0  0.89146  0.90622  0.75598  1.0000
  Ga  Ga15      1.0  0.39143  0.40619  0.25591  1.0000
  Ga  Ga16      1.0  0.39150  0.40613  0.75586  1.0000
  Ga  Ga17      1.0  0.30004  0.83496  0.28030  1.0000
  Ga  Ga18      1.0  0.30002  0.83492  0.78026  1.0000
  Ga  Ga19      1.0  0.79999  0.33494  0.28030  1.0000
  Ga  Ga20      1.0  0.79998  0.33492  0.78034  1.0000
  Ga  Ga21      1.0  0.70066  0.16557  0.28018  1.0000
  Ga  Ga22      1.0  0.70068  0.16552  0.78025  1.0000
  Ga  Ga23      1.0  0.20078  0.66557  0.28023  1.0000
  Ga  Ga24      1.0  0.20057  0.66555  0.78021  1.0000
  Ga  Ga25      1.0  0.70064  0.83496  0.28036  1.0000
  Ga  Ga26      1.0  0.70076  0.83496  0.78041  1.0000
  Ga  Ga27      1.0  0.20070  0.33499  0.28036  1.0000
  Ga  Ga28      1.0  0.20074  0.33494  0.78041  1.0000
  Ga  Ga29      1.0  0.30008  0.16557  0.28022  1.0000
  Ga  Ga30      1.0  0.30013  0.16552  0.78024  1.0000
  Ga  Ga31      1.0  0.80011  0.66555  0.28034  1.0000
  Ga  Ga32      1.0  0.80007  0.66560  0.78024  1.0000
  Ga  Ga33      1.0  0.61251  0.00033  0.30463  1.0000
  Ga  Ga34      1.0  0.61251  0.00034  0.80469  1.0000
  Ga  Ga35      1.0  0.11254  0.50036  0.30469  1.0000
  Ga  Ga36      1.0  0.11255  0.50024  0.80476  1.0000
  Ga  Ga37      1.0  0.38814  0.00031  0.30455  1.0000
  Ga  Ga38      1.0  0.38811  0.00027  0.80463  1.0000
  Ga  Ga39      1.0  0.88810  0.50030  0.30477  1.0000
  Ga  Ga40      1.0  0.88812  0.50029  0.80469  1.0000
  Ga  Ga41      1.0  0.50031  0.76285  0.26408  1.0000
  Ga  Ga42      1.0  0.50038  0.76286  0.76413  1.0000
  Ga  Ga43      1.0  0.00031  0.26283  0.26423  1.0000
  Ga  Ga44      1.0  0.00035  0.26289  0.76421  1.0000
  Ga  Ga45      1.0  0.50029  0.23830  0.26420  1.0000
  Ga  Ga46      1.0  0.50032  0.23815  0.76415  1.0000
  Ga  Ga47      1.0  0.00038  0.73808  0.26424  1.0000
  Ga  Ga48      1.0  0.00030  0.73832  0.76429  1.0000
  O   O1        1.0  0.25036  0.25029  0.37828  1.0000
  O   O2        1.0  0.25044  0.25024  0.87832  1.0000
  O   O3        1.0  0.75041  0.75028  0.37831  1.0000
  O   O4        1.0  0.75037  0.75025  0.87838  1.0000
  O   O5        1.0  0.25047  0.75024  0.37829  1.0000
  O   O6        1.0  0.25026  0.75026  0.87829  1.0000
  O   O7        1.0  0.75025  0.25028  0.37830  1.0000
  O   O8        1.0  0.75040  0.25022  0.87831  1.0000
  O   O9        1.0  0.33070  0.08555  0.38788  1.0000
  O   O10       1.0  0.33084  0.08560  0.88800  1.0000
  O   O11       1.0  0.83086  0.58562  0.38815  1.0000
  O   O12       1.0  0.83075  0.58559  0.88793  1.0000
  O   O13       1.0  0.66986  0.91499  0.38794  1.0000
  O   O14       1.0  0.67000  0.91504  0.88791  1.0000
  O   O15       1.0  0.17006  0.41509  0.38789  1.0000
  O   O16       1.0  0.17007  0.41498  0.88801  1.0000
  O   O17       1.0  0.67010  0.08552  0.38780  1.0000
  O   O18       1.0  0.66995  0.08559  0.88802  1.0000
  O   O19       1.0  0.17006  0.58559  0.38797  1.0000
  O   O20       1.0  0.17001  0.58552  0.88790  1.0000
  O   O21       1.0  0.33079  0.91501  0.38785  1.0000
  O   O22       1.0  0.33066  0.91501  0.88779  1.0000
  O   O23       1.0  0.83061  0.41504  0.38783  1.0000
  O   O24       1.0  0.83068  0.41501  0.88786  1.0000
  O   O25       1.0  0.50027  0.22847  0.43299  1.0000
  O   O26       1.0  0.50038  0.22845  0.93292  1.0000
  O   O27       1.0  0.00036  0.72841  0.43301  1.0000
  O   O28       1.0  0.00031  0.72850  0.93303  1.0000
  O   O29       1.0  0.50032  0.77227  0.43288  1.0000
  O   O30       1.0  0.50038  0.77213  0.93295  1.0000
  O   O31       1.0  0.00032  0.27219  0.43304  1.0000
  O   O32       1.0  0.00039  0.27220  0.93302  1.0000
  O   O33       1.0  0.88695  0.91042  0.42408  1.0000
  O   O34       1.0  0.88695  0.91039  0.92417  1.0000
  O   O35       1.0  0.38693  0.41037  0.42408  1.0000
  O   O36       1.0  0.38705  0.41044  0.92406  1.0000
  O   O37       1.0  0.11375  0.09003  0.42414  1.0000
  O   O38       1.0  0.11382  0.09006  0.92407  1.0000
  O   O39       1.0  0.61376  0.59012  0.42414  1.0000
  O   O40       1.0  0.61374  0.59010  0.92401  1.0000
  O   O41       1.0  0.11365  0.91031  0.42402  1.0000
  O   O42       1.0  0.11370  0.91041  0.92405  1.0000
  O   O43       1.0  0.61361  0.41042  0.42405  1.0000
  O   O44       1.0  0.61371  0.41040  0.92402  1.0000
  O   O45       1.0  0.88704  0.09019  0.42413  1.0000
  O   O46       1.0  0.88698  0.09007  0.92408  1.0000
  O   O47       1.0  0.38707  0.59015  0.42405  1.0000
  O   O48       1.0  0.38700  0.59017  0.92409  1.0000
  O   O49       1.0  0.50033  0.00041  0.38855  1.0000
  O   O50       1.0  0.50032  0.00020  0.88855  1.0000
  O   O51       1.0  0.00036  0.50019  0.38861  1.0000
  O   O52       1.0  0.00034  0.50018  0.88865  1.0000
  O   O53       1.0  0.20731  0.13951  0.16858  1.0000
  O   O54       1.0  0.20733  0.13960  0.66857  1.0000
  O   O55       1.0  0.70738  0.63954  0.16861  1.0000
  O   O56       1.0  0.70730  0.63964  0.66851  1.0000
  O   O57       1.0  0.79319  0.86116  0.16846  1.0000
  O   O58       1.0  0.79332  0.86111  0.66848  1.0000
  O   O59       1.0  0.29328  0.36109  0.16842  1.0000
  O   O60       1.0  0.29333  0.36094  0.66850  1.0000
  O   O61       1.0  0.79334  0.13949  0.16843  1.0000
  O   O62       1.0  0.79335  0.13948  0.66846  1.0000
  O   O63       1.0  0.29342  0.63953  0.16842  1.0000
  O   O64       1.0  0.29329  0.63955  0.66847  1.0000
  O   O65       1.0  0.20733  0.86096  0.16853  1.0000
  O   O66       1.0  0.20735  0.86098  0.66844  1.0000
  O   O67       1.0  0.70732  0.36099  0.16852  1.0000
  O   O68       1.0  0.70734  0.36101  0.66851  1.0000
  O   O69       1.0  0.50033  0.34624  0.20034  1.0000
  O   O70       1.0  0.50030  0.34611  0.70029  1.0000
  O   O71       1.0  0.00023  0.84610  0.20041  1.0000
  O   O72       1.0  0.00034  0.84623  0.70046  1.0000
  O   O73       1.0  0.50038  0.65459  0.20062  1.0000
  O   O74       1.0  0.50025  0.65461  0.70051  1.0000
  O   O75       1.0  0.00032  0.15457  0.20066  1.0000
  O   O76       1.0  0.00036  0.15464  0.70063  1.0000
  O   O77       1.0  0.39983  0.19564  0.17994  1.0000
  O   O78       1.0  0.39990  0.19546  0.67993  1.0000
  O   O79       1.0  0.89991  0.69548  0.18004  1.0000
  O   O80       1.0  0.89986  0.69565  0.68004  1.0000
  O   O81       1.0  0.60091  0.80512  0.17988  1.0000
  O   O82       1.0  0.60097  0.80515  0.67996  1.0000
  O   O83       1.0  0.10086  0.30519  0.17999  1.0000
  O   O84       1.0  0.10092  0.30518  0.68001  1.0000
  O   O85       1.0  0.60899  0.00029  0.13457  1.0000
  O   O86       1.0  0.60902  0.00036  0.63461  1.0000
  O   O87       1.0  0.10908  0.50034  0.13460  1.0000
  O   O88       1.0  0.10915  0.50029  0.63467  1.0000
  O   O89       1.0  0.39154  0.00032  0.13447  1.0000
  O   O90       1.0  0.39153  0.00031  0.63457  1.0000
  O   O91       1.0  0.89163  0.50028  0.13470  1.0000
  O   O92       1.0  0.89167  0.50034  0.63460  1.0000
  O   O93       1.0  0.89839  0.00027  0.16981  1.0000
  O   O94       1.0  0.89840  0.00028  0.66979  1.0000
  O   O95       1.0  0.39839  0.50028  0.16984  1.0000
  O   O96       1.0  0.39825  0.50026  0.66977  1.0000
  O   O97       1.0  0.10238  0.00025  0.16974  1.0000
  O   O98       1.0  0.10242  0.00030  0.66972  1.0000
  O   O99       1.0  0.60241  0.50031  0.16971  1.0000
  O   O100      1.0  0.60233  0.50025  0.66975  1.0000
  O   O101      1.0  0.39980  0.80518  0.17976  1.0000
  O   O102      1.0  0.39987  0.80520  0.67986  1.0000
  O   O103      1.0  0.89977  0.30508  0.17991  1.0000
  O   O104      1.0  0.89980  0.30516  0.67997  1.0000
  O   O105      1.0  0.60075  0.19552  0.18008  1.0000
  O   O106      1.0  0.60082  0.19548  0.68007  1.0000
  O   O107      1.0  0.10092  0.69555  0.18011  1.0000
  O   O108      1.0  0.10071  0.69554  0.68011  1.0000
