data_image0
_chemical_formula_structural       K16Zr20O48
_chemical_formula_sum              "K16 Zr20 O48"
_cell_length_a       11.662
_cell_length_b       10.0996
_cell_length_c       10.4624
_cell_angle_alpha    90
_cell_angle_beta     90
_cell_angle_gamma    90

_space_group_name_H-M_alt    "P 1"
_space_group_IT_number       1

loop_
  _space_group_symop_operation_xyz
  'x, y, z'

loop_
  _atom_site_type_symbol
  _atom_site_label
  _atom_site_symmetry_multiplicity
  _atom_site_fract_x
  _atom_site_fract_y
  _atom_site_fract_z
  _atom_site_occupancy
  K   K1        1.0  0.25050  0.83403  0.61320  1.0000
  K   K2        1.0  0.50038  0.33356  0.61284  1.0000
  K   K3        1.0  0.75031  0.83350  0.61323  1.0000
  K   K4        1.0  0.00053  0.33398  0.61328  1.0000
  K   K5        1.0  0.25041  0.16716  0.38814  1.0000
  K   K6        1.0  0.50020  0.66712  0.38769  1.0000
  K   K7        1.0  0.75053  0.16683  0.38794  1.0000
  K   K8        1.0  0.00053  0.66708  0.38795  1.0000
  K   K9        1.0  0.00042  0.00059  0.82165  1.0000
  K   K10       1.0  0.25064  0.50077  0.82176  1.0000
  K   K11       1.0  0.50034  0.00038  0.82188  1.0000
  K   K12       1.0  0.75062  0.50028  0.82206  1.0000
  K   K13       1.0  0.50023  0.00045  0.17920  1.0000
  K   K14       1.0  0.75037  0.50066  0.17929  1.0000
  K   K15       1.0  0.00062  0.00031  0.17903  1.0000
  K   K16       1.0  0.25028  0.50061  0.17887  1.0000
  Zr  Zr1       1.0  0.25048  0.83390  0.28375  1.0000
  Zr  Zr2       1.0  0.50039  0.33383  0.28367  1.0000
  Zr  Zr3       1.0  0.75051  0.83376  0.28383  1.0000
  Zr  Zr4       1.0  0.00039  0.33381  0.28376  1.0000
  Zr  Zr5       1.0  0.25045  0.16716  0.71720  1.0000
  Zr  Zr6       1.0  0.50045  0.66702  0.71725  1.0000
  Zr  Zr7       1.0  0.75043  0.16705  0.71727  1.0000
  Zr  Zr8       1.0  0.00045  0.66717  0.71712  1.0000
  Zr  Zr9       1.0  0.25049  0.83378  0.97622  1.0000
  Zr  Zr10      1.0  0.50041  0.33382  0.97618  1.0000
  Zr  Zr11      1.0  0.75052  0.83385  0.97621  1.0000
  Zr  Zr12      1.0  0.00036  0.33384  0.97627  1.0000
  Zr  Zr13      1.0  0.25039  0.16725  0.02468  1.0000
  Zr  Zr14      1.0  0.50055  0.66721  0.02475  1.0000
  Zr  Zr15      1.0  0.75038  0.16717  0.02486  1.0000
  Zr  Zr16      1.0  0.00043  0.66719  0.02462  1.0000
  Zr  Zr17      1.0  0.00042  0.00049  0.50049  1.0000
  Zr  Zr18      1.0  0.25043  0.50050  0.50035  1.0000
  Zr  Zr19      1.0  0.50048  0.00044  0.50050  1.0000
  Zr  Zr20      1.0  0.75038  0.50033  0.50056  1.0000
  O   O1        1.0  0.36821  0.75539  0.12294  1.0000
  O   O2        1.0  0.61797  0.25523  0.12306  1.0000
  O   O3        1.0  0.86820  0.75538  0.12297  1.0000
  O   O4        1.0  0.11812  0.25562  0.12293  1.0000
  O   O5        1.0  0.25059  0.99087  0.12312  1.0000
  O   O6        1.0  0.50057  0.49082  0.12294  1.0000
  O   O7        1.0  0.75069  0.99080  0.12314  1.0000
  O   O8        1.0  0.00034  0.49091  0.12307  1.0000
  O   O9        1.0  0.13272  0.75555  0.12292  1.0000
  O   O10       1.0  0.38262  0.25565  0.12294  1.0000
  O   O11       1.0  0.63279  0.75539  0.12316  1.0000
  O   O12       1.0  0.88265  0.25558  0.12311  1.0000
  O   O13       1.0  0.25046  0.01018  0.87795  1.0000
  O   O14       1.0  0.50054  0.51017  0.87789  1.0000
  O   O15       1.0  0.75051  0.01023  0.87797  1.0000
  O   O16       1.0  0.00032  0.51010  0.87795  1.0000
  O   O17       1.0  0.13258  0.24550  0.87785  1.0000
  O   O18       1.0  0.38280  0.74556  0.87788  1.0000
  O   O19       1.0  0.63265  0.24543  0.87803  1.0000
  O   O20       1.0  0.88272  0.74552  0.87775  1.0000
  O   O21       1.0  0.36806  0.24567  0.87784  1.0000
  O   O22       1.0  0.61822  0.74558  0.87800  1.0000
  O   O23       1.0  0.86804  0.24559  0.87797  1.0000
  O   O24       1.0  0.11832  0.74533  0.87782  1.0000
  O   O25       1.0  0.12418  0.91800  0.37904  1.0000
  O   O26       1.0  0.37409  0.41825  0.37882  1.0000
  O   O27       1.0  0.62424  0.91809  0.37911  1.0000
  O   O28       1.0  0.87408  0.41790  0.37922  1.0000
  O   O29       1.0  0.25032  0.66540  0.37890  1.0000
  O   O30       1.0  0.50027  0.16539  0.37902  1.0000
  O   O31       1.0  0.75049  0.66544  0.37934  1.0000
  O   O32       1.0  0.00057  0.16538  0.37906  1.0000
  O   O33       1.0  0.37685  0.91784  0.37920  1.0000
  O   O34       1.0  0.62668  0.41811  0.37896  1.0000
  O   O35       1.0  0.87690  0.91800  0.37893  1.0000
  O   O36       1.0  0.12670  0.41799  0.37908  1.0000
  O   O37       1.0  0.12413  0.08276  0.62196  1.0000
  O   O38       1.0  0.37410  0.58293  0.62186  1.0000
  O   O39       1.0  0.62401  0.08300  0.62197  1.0000
  O   O40       1.0  0.87419  0.58275  0.62194  1.0000
  O   O41       1.0  0.37675  0.08277  0.62199  1.0000
  O   O42       1.0  0.62686  0.58277  0.62217  1.0000
  O   O43       1.0  0.87669  0.08286  0.62177  1.0000
  O   O44       1.0  0.12673  0.58289  0.62172  1.0000
  O   O45       1.0  0.25067  0.33546  0.62174  1.0000
  O   O46       1.0  0.50055  0.83546  0.62190  1.0000
  O   O47       1.0  0.75043  0.33542  0.62198  1.0000
  O   O48       1.0  0.00042  0.83550  0.62179  1.0000
