data_image0
_chemical_formula_structural       Rb64Li64O64
_chemical_formula_sum              "Rb64 Li64 O64"
_cell_length_a       14.0171
_cell_length_b       13.0742
_cell_length_c       17.7441
_cell_angle_alpha    90
_cell_angle_beta     90
_cell_angle_gamma    90

_space_group_name_H-M_alt    "P 1"
_space_group_IT_number       1

loop_
  _space_group_symop_operation_xyz
  'x, y, z'

loop_
  _atom_site_type_symbol
  _atom_site_label
  _atom_site_symmetry_multiplicity
  _atom_site_fract_x
  _atom_site_fract_y
  _atom_site_fract_z
  _atom_site_occupancy
  Rb  Rb1       1.0  0.06288  0.24918  0.16089  1.0000
  Rb  Rb2       1.0  0.06286  0.24889  0.66067  1.0000
  Rb  Rb3       1.0  0.06285  0.74881  0.16065  1.0000
  Rb  Rb4       1.0  0.06273  0.74903  0.66097  1.0000
  Rb  Rb5       1.0  0.31310  0.24896  0.16077  1.0000
  Rb  Rb6       1.0  0.31293  0.24910  0.66089  1.0000
  Rb  Rb7       1.0  0.31281  0.74912  0.16085  1.0000
  Rb  Rb8       1.0  0.31274  0.74896  0.66074  1.0000
  Rb  Rb9       1.0  0.56308  0.24911  0.16076  1.0000
  Rb  Rb10      1.0  0.56308  0.24897  0.66081  1.0000
  Rb  Rb11      1.0  0.56270  0.74900  0.16079  1.0000
  Rb  Rb12      1.0  0.56263  0.74911  0.66076  1.0000
  Rb  Rb13      1.0  0.81295  0.24885  0.16075  1.0000
  Rb  Rb14      1.0  0.81295  0.24888  0.66090  1.0000
  Rb  Rb15      1.0  0.81267  0.74889  0.16072  1.0000
  Rb  Rb16      1.0  0.81275  0.74919  0.66077  1.0000
  Rb  Rb17      1.0  0.18787  0.25177  0.33973  1.0000
  Rb  Rb18      1.0  0.18797  0.25175  0.83989  1.0000
  Rb  Rb19      1.0  0.18777  0.75176  0.33970  1.0000
  Rb  Rb20      1.0  0.18799  0.75184  0.83973  1.0000
  Rb  Rb21      1.0  0.43773  0.25171  0.33983  1.0000
  Rb  Rb22      1.0  0.43803  0.25190  0.83988  1.0000
  Rb  Rb23      1.0  0.43768  0.75181  0.33975  1.0000
  Rb  Rb24      1.0  0.43794  0.75179  0.83986  1.0000
  Rb  Rb25      1.0  0.68781  0.25194  0.33992  1.0000
  Rb  Rb26      1.0  0.68802  0.25160  0.83995  1.0000
  Rb  Rb27      1.0  0.68783  0.75182  0.33972  1.0000
  Rb  Rb28      1.0  0.68780  0.75161  0.83973  1.0000
  Rb  Rb29      1.0  0.93782  0.25168  0.33976  1.0000
  Rb  Rb30      1.0  0.93800  0.25175  0.83974  1.0000
  Rb  Rb31      1.0  0.93784  0.75190  0.33971  1.0000
  Rb  Rb32      1.0  0.93788  0.75177  0.83992  1.0000
  Rb  Rb33      1.0  0.06293  0.49899  0.08970  1.0000
  Rb  Rb34      1.0  0.06273  0.49919  0.58989  1.0000
  Rb  Rb35      1.0  0.06306  0.99914  0.08988  1.0000
  Rb  Rb36      1.0  0.06296  0.99906  0.58962  1.0000
  Rb  Rb37      1.0  0.31284  0.49886  0.08967  1.0000
  Rb  Rb38      1.0  0.31280  0.49893  0.58972  1.0000
  Rb  Rb39      1.0  0.31274  0.99911  0.08969  1.0000
  Rb  Rb40      1.0  0.31311  0.99909  0.58971  1.0000
  Rb  Rb41      1.0  0.56272  0.49911  0.08987  1.0000
  Rb  Rb42      1.0  0.56298  0.49915  0.58978  1.0000
  Rb  Rb43      1.0  0.56285  0.99911  0.08980  1.0000
  Rb  Rb44      1.0  0.56301  0.99906  0.58987  1.0000
  Rb  Rb45      1.0  0.81278  0.49904  0.08982  1.0000
  Rb  Rb46      1.0  0.81295  0.49889  0.58984  1.0000
  Rb  Rb47      1.0  0.81308  0.99884  0.08975  1.0000
  Rb  Rb48      1.0  0.81286  0.99902  0.58959  1.0000
  Rb  Rb49      1.0  0.18806  0.00179  0.41069  1.0000
  Rb  Rb50      1.0  0.18790  0.00169  0.91072  1.0000
  Rb  Rb51      1.0  0.18786  0.50169  0.41094  1.0000
  Rb  Rb52      1.0  0.18785  0.50204  0.91081  1.0000
  Rb  Rb53      1.0  0.43812  0.00165  0.41061  1.0000
  Rb  Rb54      1.0  0.43797  0.00159  0.91074  1.0000
  Rb  Rb55      1.0  0.43769  0.50194  0.41079  1.0000
  Rb  Rb56      1.0  0.43800  0.50169  0.91074  1.0000
  Rb  Rb57      1.0  0.68780  0.00161  0.41069  1.0000
  Rb  Rb58      1.0  0.68799  0.00170  0.91094  1.0000
  Rb  Rb59      1.0  0.68772  0.50165  0.41074  1.0000
  Rb  Rb60      1.0  0.68768  0.50174  0.91084  1.0000
  Rb  Rb61      1.0  0.93805  0.00185  0.41091  1.0000
  Rb  Rb62      1.0  0.93799  0.00175  0.91070  1.0000
  Rb  Rb63      1.0  0.93767  0.50168  0.41073  1.0000
  Rb  Rb64      1.0  0.93773  0.50179  0.91068  1.0000
  Li  Li1       1.0  0.18793  0.19922  0.49899  1.0000
  Li  Li2       1.0  0.18784  0.19904  0.99918  1.0000
  Li  Li3       1.0  0.18782  0.69914  0.49919  1.0000
  Li  Li4       1.0  0.18789  0.69932  0.99905  1.0000
  Li  Li5       1.0  0.43788  0.19919  0.49910  1.0000
  Li  Li6       1.0  0.43777  0.19906  0.99911  1.0000
  Li  Li7       1.0  0.43774  0.69924  0.49917  1.0000
  Li  Li8       1.0  0.43782  0.69911  0.99915  1.0000
  Li  Li9       1.0  0.68787  0.19910  0.49909  1.0000
  Li  Li10      1.0  0.68780  0.19911  0.99927  1.0000
  Li  Li11      1.0  0.68773  0.69909  0.49890  1.0000
  Li  Li12      1.0  0.68779  0.69917  0.99911  1.0000
  Li  Li13      1.0  0.93792  0.19929  0.49904  1.0000
  Li  Li14      1.0  0.93786  0.19912  0.99908  1.0000
  Li  Li15      1.0  0.93787  0.69907  0.49905  1.0000
  Li  Li16      1.0  0.93779  0.69903  0.99905  1.0000
  Li  Li17      1.0  0.06279  0.05166  0.24908  1.0000
  Li  Li18      1.0  0.06282  0.05151  0.74903  1.0000
  Li  Li19      1.0  0.06276  0.55163  0.24915  1.0000
  Li  Li20      1.0  0.06295  0.55149  0.74905  1.0000
  Li  Li21      1.0  0.31279  0.05158  0.24902  1.0000
  Li  Li22      1.0  0.31282  0.05162  0.74921  1.0000
  Li  Li23      1.0  0.31276  0.55150  0.24899  1.0000
  Li  Li24      1.0  0.31289  0.55156  0.74913  1.0000
  Li  Li25      1.0  0.56279  0.05171  0.24910  1.0000
  Li  Li26      1.0  0.56285  0.05164  0.74924  1.0000
  Li  Li27      1.0  0.56291  0.55162  0.24914  1.0000
  Li  Li28      1.0  0.56288  0.55166  0.74909  1.0000
  Li  Li29      1.0  0.81280  0.05159  0.24914  1.0000
  Li  Li30      1.0  0.81288  0.05148  0.74899  1.0000
  Li  Li31      1.0  0.81283  0.55152  0.24913  1.0000
  Li  Li32      1.0  0.81291  0.55175  0.74904  1.0000
  Li  Li33      1.0  0.18780  0.44922  0.25158  1.0000
  Li  Li34      1.0  0.18799  0.44893  0.75149  1.0000
  Li  Li35      1.0  0.18784  0.94919  0.25143  1.0000
  Li  Li36      1.0  0.18781  0.94907  0.75140  1.0000
  Li  Li37      1.0  0.43785  0.44915  0.25166  1.0000
  Li  Li38      1.0  0.43789  0.44918  0.75148  1.0000
  Li  Li39      1.0  0.43785  0.94916  0.25130  1.0000
  Li  Li40      1.0  0.43783  0.94913  0.75142  1.0000
  Li  Li41      1.0  0.68790  0.44904  0.25135  1.0000
  Li  Li42      1.0  0.68792  0.44913  0.75143  1.0000
  Li  Li43      1.0  0.68779  0.94919  0.25151  1.0000
  Li  Li44      1.0  0.68785  0.94914  0.75161  1.0000
  Li  Li45      1.0  0.93777  0.44902  0.25138  1.0000
  Li  Li46      1.0  0.93788  0.44913  0.75134  1.0000
  Li  Li47      1.0  0.93782  0.94914  0.25148  1.0000
  Li  Li48      1.0  0.93781  0.94905  0.75145  1.0000
  Li  Li49      1.0  0.06285  0.30161  0.00138  1.0000
  Li  Li50      1.0  0.06291  0.30179  0.50150  1.0000
  Li  Li51      1.0  0.06279  0.80166  0.00141  1.0000
  Li  Li52      1.0  0.06284  0.80164  0.50146  1.0000
  Li  Li53      1.0  0.31280  0.30158  0.00140  1.0000
  Li  Li54      1.0  0.31287  0.30165  0.50144  1.0000
  Li  Li55      1.0  0.31291  0.80171  0.00150  1.0000
  Li  Li56      1.0  0.31280  0.80170  0.50138  1.0000
  Li  Li57      1.0  0.56270  0.30158  0.00148  1.0000
  Li  Li58      1.0  0.56281  0.30175  0.50146  1.0000
  Li  Li59      1.0  0.56280  0.80162  0.00164  1.0000
  Li  Li60      1.0  0.56273  0.80173  0.50134  1.0000
  Li  Li61      1.0  0.81287  0.30168  0.00152  1.0000
  Li  Li62      1.0  0.81282  0.30155  0.50157  1.0000
  Li  Li63      1.0  0.81276  0.80152  0.00145  1.0000
  Li  Li64      1.0  0.81285  0.80149  0.50145  1.0000
  O   O1        1.0  0.06291  0.15691  0.47621  1.0000
  O   O2        1.0  0.06286  0.15674  0.97627  1.0000
  O   O3        1.0  0.06284  0.65679  0.47635  1.0000
  O   O4        1.0  0.06283  0.65684  0.97620  1.0000
  O   O5        1.0  0.31287  0.15677  0.47619  1.0000
  O   O6        1.0  0.31280  0.15668  0.97645  1.0000
  O   O7        1.0  0.31275  0.65678  0.47645  1.0000
  O   O8        1.0  0.31283  0.65677  0.97628  1.0000
  O   O9        1.0  0.56284  0.15667  0.47643  1.0000
  O   O10       1.0  0.56277  0.15670  0.97636  1.0000
  O   O11       1.0  0.56271  0.65685  0.47629  1.0000
  O   O12       1.0  0.56286  0.65673  0.97637  1.0000
  O   O13       1.0  0.81298  0.15670  0.47646  1.0000
  O   O14       1.0  0.81285  0.15690  0.97627  1.0000
  O   O15       1.0  0.81278  0.65670  0.47633  1.0000
  O   O16       1.0  0.81276  0.65667  0.97642  1.0000
  O   O17       1.0  0.18778  0.09401  0.22621  1.0000
  O   O18       1.0  0.18783  0.09397  0.72645  1.0000
  O   O19       1.0  0.18773  0.59392  0.22629  1.0000
  O   O20       1.0  0.18788  0.59377  0.72624  1.0000
  O   O21       1.0  0.43775  0.09408  0.22632  1.0000
  O   O22       1.0  0.43787  0.09407  0.72637  1.0000
  O   O23       1.0  0.43780  0.59406  0.22643  1.0000
  O   O24       1.0  0.43783  0.59410  0.72656  1.0000
  O   O25       1.0  0.68780  0.09404  0.22636  1.0000
  O   O26       1.0  0.68791  0.09402  0.72638  1.0000
  O   O27       1.0  0.68794  0.59397  0.22621  1.0000
  O   O28       1.0  0.68789  0.59407  0.72631  1.0000
  O   O29       1.0  0.93782  0.09396  0.22617  1.0000
  O   O30       1.0  0.93789  0.09383  0.72618  1.0000
  O   O31       1.0  0.93778  0.59391  0.22620  1.0000
  O   O32       1.0  0.93787  0.59400  0.72635  1.0000
  O   O33       1.0  0.06280  0.40673  0.27436  1.0000
  O   O34       1.0  0.06286  0.40658  0.77404  1.0000
  O   O35       1.0  0.06280  0.90682  0.27432  1.0000
  O   O36       1.0  0.06284  0.90671  0.77430  1.0000
  O   O37       1.0  0.31279  0.40682  0.27429  1.0000
  O   O38       1.0  0.31296  0.40677  0.77437  1.0000
  O   O39       1.0  0.31281  0.90671  0.27416  1.0000
  O   O40       1.0  0.31287  0.90671  0.77418  1.0000
  O   O41       1.0  0.56295  0.40676  0.27419  1.0000
  O   O42       1.0  0.56286  0.40668  0.77410  1.0000
  O   O43       1.0  0.56283  0.90684  0.27437  1.0000
  O   O44       1.0  0.56287  0.90686  0.77436  1.0000
  O   O45       1.0  0.81279  0.40666  0.27428  1.0000
  O   O46       1.0  0.81290  0.40682  0.77416  1.0000
  O   O47       1.0  0.81283  0.90681  0.27434  1.0000
  O   O48       1.0  0.81288  0.90669  0.77422  1.0000
  O   O49       1.0  0.18780  0.34408  0.02421  1.0000
  O   O50       1.0  0.18792  0.34402  0.52429  1.0000
  O   O51       1.0  0.18785  0.84407  0.02418  1.0000
  O   O52       1.0  0.18780  0.84408  0.52420  1.0000
  O   O53       1.0  0.43774  0.34398  0.02407  1.0000
  O   O54       1.0  0.43781  0.34410  0.52413  1.0000
  O   O55       1.0  0.43785  0.84397  0.02439  1.0000
  O   O56       1.0  0.43779  0.84412  0.52414  1.0000
  O   O57       1.0  0.68775  0.34397  0.02433  1.0000
  O   O58       1.0  0.68783  0.34398  0.52409  1.0000
  O   O59       1.0  0.68780  0.84398  0.02428  1.0000
  O   O60       1.0  0.68778  0.84402  0.52408  1.0000
  O   O61       1.0  0.93791  0.34395  0.02423  1.0000
  O   O62       1.0  0.93778  0.34400  0.52428  1.0000
  O   O63       1.0  0.93777  0.84395  0.02405  1.0000
  O   O64       1.0  0.93782  0.84398  0.52423  1.0000
