data_image0
_chemical_formula_structural       Y64O96
_chemical_formula_sum              "Y64 O96"
_cell_length_a       17.5881
_cell_length_b       14.9997
_cell_length_c       9.18496
_cell_angle_alpha    90.0009
_cell_angle_beta     79.9692
_cell_angle_gamma    89.9944

_space_group_name_H-M_alt    "P 1"
_space_group_IT_number       1

loop_
  _space_group_symop_operation_xyz
  'x, y, z'

loop_
  _atom_site_type_symbol
  _atom_site_label
  _atom_site_symmetry_multiplicity
  _atom_site_fract_x
  _atom_site_fract_y
  _atom_site_fract_z
  _atom_site_occupancy
  Y   Y1        1.0  0.94579  0.35914  0.16378  1.0000
  Y   Y2        1.0  0.44585  0.35917  0.66385  1.0000
  Y   Y3        1.0  0.19588  0.85902  0.41364  1.0000
  Y   Y4        1.0  0.69588  0.85906  0.91361  1.0000
  Y   Y5        1.0  0.82894  0.37526  0.57934  1.0000
  Y   Y6        1.0  0.32900  0.37536  0.07916  1.0000
  Y   Y7        1.0  0.07896  0.87533  0.82911  1.0000
  Y   Y8        1.0  0.57887  0.87539  0.32922  1.0000
  Y   Y9        1.0  0.38329  0.01647  0.35117  1.0000
  Y   Y10       1.0  0.88328  0.01653  0.85114  1.0000
  Y   Y11       1.0  0.63336  0.51647  0.60131  1.0000
  Y   Y12       1.0  0.13329  0.51654  0.10123  1.0000
  Y   Y13       1.0  0.17162  0.12531  0.42186  1.0000
  Y   Y14       1.0  0.67159  0.12524  0.92181  1.0000
  Y   Y15       1.0  0.42157  0.62534  0.67200  1.0000
  Y   Y16       1.0  0.92146  0.62542  0.17189  1.0000
  Y   Y17       1.0  0.24219  0.23411  0.77480  1.0000
  Y   Y18       1.0  0.74213  0.23406  0.27471  1.0000
  Y   Y19       1.0  0.49213  0.73411  0.02496  1.0000
  Y   Y20       1.0  0.99217  0.73415  0.52464  1.0000
  Y   Y21       1.0  0.17968  0.39147  0.46226  1.0000
  Y   Y22       1.0  0.67971  0.39154  0.96243  1.0000
  Y   Y23       1.0  0.42967  0.89157  0.71233  1.0000
  Y   Y24       1.0  0.92967  0.89150  0.21214  1.0000
  Y   Y25       1.0  0.30464  0.14155  0.08727  1.0000
  Y   Y26       1.0  0.80466  0.14152  0.58721  1.0000
  Y   Y27       1.0  0.55465  0.64152  0.33739  1.0000
  Y   Y28       1.0  0.05462  0.64157  0.83730  1.0000
  Y   Y29       1.0  0.42157  0.12532  0.67171  1.0000
  Y   Y30       1.0  0.92157  0.12522  0.17171  1.0000
  Y   Y31       1.0  0.67158  0.62532  0.92193  1.0000
  Y   Y32       1.0  0.17157  0.62527  0.42174  1.0000
  Y   Y33       1.0  0.86723  0.48419  0.89985  1.0000
  Y   Y34       1.0  0.36720  0.48413  0.39994  1.0000
  Y   Y35       1.0  0.11714  0.98411  0.14988  1.0000
  Y   Y36       1.0  0.61716  0.98411  0.64978  1.0000
  Y   Y37       1.0  0.07896  0.37531  0.82916  1.0000
  Y   Y38       1.0  0.57893  0.37532  0.32933  1.0000
  Y   Y39       1.0  0.32892  0.87531  0.07924  1.0000
  Y   Y40       1.0  0.82899  0.87533  0.57900  1.0000
  Y   Y41       1.0  0.00836  0.26647  0.47616  1.0000
  Y   Y42       1.0  0.50842  0.26655  0.97633  1.0000
  Y   Y43       1.0  0.25836  0.76655  0.72625  1.0000
  Y   Y44       1.0  0.75834  0.76653  0.22616  1.0000
  Y   Y45       1.0  0.07085  0.10908  0.78873  1.0000
  Y   Y46       1.0  0.57085  0.10916  0.28871  1.0000
  Y   Y47       1.0  0.32082  0.60913  0.03873  1.0000
  Y   Y48       1.0  0.82085  0.60909  0.53881  1.0000
  Y   Y49       1.0  0.87530  0.25032  0.87550  1.0000
  Y   Y50       1.0  0.37522  0.25036  0.37546  1.0000
  Y   Y51       1.0  0.12531  0.75028  0.12536  1.0000
  Y   Y52       1.0  0.62522  0.75028  0.62550  1.0000
  Y   Y53       1.0  0.25026  0.00030  0.75059  1.0000
  Y   Y54       1.0  0.75024  0.00029  0.25063  1.0000
  Y   Y55       1.0  0.50028  0.50038  0.00063  1.0000
  Y   Y56       1.0  0.00026  0.50034  0.50071  1.0000
  Y   Y57       1.0  0.00029  0.00029  0.50052  1.0000
  Y   Y58       1.0  0.50023  0.00034  0.00046  1.0000
  Y   Y59       1.0  0.25022  0.50040  0.75046  1.0000
  Y   Y60       1.0  0.75023  0.50031  0.25059  1.0000
  Y   Y61       1.0  0.12519  0.25028  0.12554  1.0000
  Y   Y62       1.0  0.62529  0.25030  0.62565  1.0000
  Y   Y63       1.0  0.37521  0.75020  0.37566  1.0000
  Y   Y64       1.0  0.87530  0.75040  0.87535  1.0000
  O   O1        1.0  0.89382  0.24483  0.62329  1.0000
  O   O2        1.0  0.39381  0.24493  0.12324  1.0000
  O   O3        1.0  0.14379  0.74479  0.87325  1.0000
  O   O4        1.0  0.64376  0.74496  0.37330  1.0000
  O   O5        1.0  0.04677  0.13568  0.55782  1.0000
  O   O6        1.0  0.54677  0.13560  0.05768  1.0000
  O   O7        1.0  0.29669  0.63571  0.80779  1.0000
  O   O8        1.0  0.79659  0.63571  0.30790  1.0000
  O   O9        1.0  0.13345  0.00582  0.90452  1.0000
  O   O10       1.0  0.63333  0.00591  0.40450  1.0000
  O   O11       1.0  0.38341  0.50575  0.15449  1.0000
  O   O12       1.0  0.88340  0.50574  0.65453  1.0000
  O   O13       1.0  0.00050  0.22900  0.23987  1.0000
  O   O14       1.0  0.50052  0.22911  0.74000  1.0000
  O   O15       1.0  0.25055  0.72894  0.49003  1.0000
  O   O16       1.0  0.75063  0.72904  0.98975  1.0000
  O   O17       1.0  0.11197  0.23449  0.88392  1.0000
  O   O18       1.0  0.61194  0.23446  0.38409  1.0000
  O   O19       1.0  0.36186  0.73446  0.13406  1.0000
  O   O20       1.0  0.86191  0.73458  0.63384  1.0000
  O   O21       1.0  0.37275  0.01610  0.10120  1.0000
  O   O22       1.0  0.87289  0.01616  0.60107  1.0000
  O   O23       1.0  0.62281  0.51612  0.35128  1.0000
  O   O24       1.0  0.12271  0.51614  0.85125  1.0000
  O   O25       1.0  0.95084  0.36979  0.90866  1.0000
  O   O26       1.0  0.45081  0.36987  0.40874  1.0000
  O   O27       1.0  0.20084  0.86991  0.15855  1.0000
  O   O28       1.0  0.70082  0.86975  0.65835  1.0000
  O   O29       1.0  0.95349  0.13606  0.92205  1.0000
  O   O30       1.0  0.45349  0.13621  0.42207  1.0000
  O   O31       1.0  0.20353  0.63618  0.17205  1.0000
  O   O32       1.0  0.70356  0.63617  0.67226  1.0000
  O   O33       1.0  0.05462  0.38073  0.59722  1.0000
  O   O34       1.0  0.55460  0.38086  0.09747  1.0000
  O   O35       1.0  0.30459  0.88083  0.84735  1.0000
  O   O36       1.0  0.80463  0.88082  0.34718  1.0000
  O   O37       1.0  0.31281  0.11443  0.84454  1.0000
  O   O38       1.0  0.81276  0.11437  0.34454  1.0000
  O   O39       1.0  0.56269  0.61448  0.09472  1.0000
  O   O40       1.0  0.06275  0.61439  0.59464  1.0000
  O   O41       1.0  0.99502  0.02145  0.25624  1.0000
  O   O42       1.0  0.49508  0.02159  0.75618  1.0000
  O   O43       1.0  0.24511  0.52154  0.50621  1.0000
  O   O44       1.0  0.74510  0.52161  0.00638  1.0000
  O   O45       1.0  0.17711  0.11494  0.16666  1.0000
  O   O46       1.0  0.67709  0.11497  0.66661  1.0000
  O   O47       1.0  0.42715  0.61490  0.41670  1.0000
  O   O48       1.0  0.92712  0.61511  0.91651  1.0000
  O   O49       1.0  0.35669  0.25581  0.62774  1.0000
  O   O50       1.0  0.85675  0.25569  0.12775  1.0000
  O   O51       1.0  0.60673  0.75567  0.87780  1.0000
  O   O52       1.0  0.10676  0.75569  0.37762  1.0000
  O   O53       1.0  0.20381  0.36496  0.69319  1.0000
  O   O54       1.0  0.70378  0.36491  0.19323  1.0000
  O   O55       1.0  0.45387  0.86498  0.94321  1.0000
  O   O56       1.0  0.95387  0.86493  0.44304  1.0000
  O   O57       1.0  0.11716  0.49490  0.34666  1.0000
  O   O58       1.0  0.61717  0.49496  0.84671  1.0000
  O   O59       1.0  0.36708  0.99488  0.59658  1.0000
  O   O60       1.0  0.86702  0.99483  0.09648  1.0000
  O   O61       1.0  0.24996  0.27157  0.01129  1.0000
  O   O62       1.0  0.75006  0.27145  0.51104  1.0000
  O   O63       1.0  0.49993  0.77155  0.26141  1.0000
  O   O64       1.0  0.00003  0.77163  0.76085  1.0000
  O   O65       1.0  0.07326  0.38568  0.08467  1.0000
  O   O66       1.0  0.57343  0.38566  0.58456  1.0000
  O   O67       1.0  0.32341  0.88555  0.33451  1.0000
  O   O68       1.0  0.82328  0.88574  0.83433  1.0000
  O   O69       1.0  0.25546  0.47912  0.99467  1.0000
  O   O70       1.0  0.75540  0.47894  0.49484  1.0000
  O   O71       1.0  0.50538  0.97911  0.24477  1.0000
  O   O72       1.0  0.00538  0.97909  0.74482  1.0000
  O   O73       1.0  0.93771  0.38626  0.40650  1.0000
  O   O74       1.0  0.43792  0.38626  0.90646  1.0000
  O   O75       1.0  0.18772  0.88619  0.65641  1.0000
  O   O76       1.0  0.68772  0.88620  0.15640  1.0000
  O   O77       1.0  0.19594  0.11978  0.65376  1.0000
  O   O78       1.0  0.69597  0.11976  0.15369  1.0000
  O   O79       1.0  0.44584  0.61993  0.90386  1.0000
  O   O80       1.0  0.94586  0.61984  0.40387  1.0000
  O   O81       1.0  0.29701  0.36446  0.32877  1.0000
  O   O82       1.0  0.79703  0.36449  0.82898  1.0000
  O   O83       1.0  0.54694  0.86447  0.57880  1.0000
  O   O84       1.0  0.04698  0.86436  0.07869  1.0000
  O   O85       1.0  0.29969  0.13083  0.34234  1.0000
  O   O86       1.0  0.79967  0.13083  0.84214  1.0000
  O   O87       1.0  0.54971  0.63070  0.59253  1.0000
  O   O88       1.0  0.04960  0.63079  0.09256  1.0000
  O   O89       1.0  0.87771  0.48456  0.14964  1.0000
  O   O90       1.0  0.37768  0.48457  0.65002  1.0000
  O   O91       1.0  0.12774  0.98446  0.39981  1.0000
  O   O92       1.0  0.62772  0.98441  0.89961  1.0000
  O   O93       1.0  0.13863  0.26614  0.36694  1.0000
  O   O94       1.0  0.63864  0.26615  0.86728  1.0000
  O   O95       1.0  0.38864  0.76617  0.61714  1.0000
  O   O96       1.0  0.88853  0.76616  0.11698  1.0000
