data_image0
_chemical_formula_structural       Mg56Ge20O96
_chemical_formula_sum              "Mg56 Ge20 O96"
_cell_length_a       11.8568
_cell_length_b       10.1983
_cell_length_c       14.4959
_cell_angle_alpha    89.9982
_cell_angle_beta     89.9976
_cell_angle_gamma    90.0014

_space_group_name_H-M_alt    "P 1"
_space_group_IT_number       1

loop_
  _space_group_symop_operation_xyz
  'x, y, z'

loop_
  _atom_site_type_symbol
  _atom_site_label
  _atom_site_symmetry_multiplicity
  _atom_site_fract_x
  _atom_site_fract_y
  _atom_site_fract_z
  _atom_site_occupancy
  Mg  Mg1       1.0  0.25040  0.50067  0.00032  1.0000
  Mg  Mg2       1.0  0.75041  0.50066  0.00039  1.0000
  Mg  Mg3       1.0  0.25053  0.00043  0.50033  1.0000
  Mg  Mg4       1.0  0.75053  0.00044  0.50038  1.0000
  Mg  Mg5       1.0  0.25047  0.00067  0.00034  1.0000
  Mg  Mg6       1.0  0.75046  0.00070  0.00034  1.0000
  Mg  Mg7       1.0  0.25054  0.50039  0.50035  1.0000
  Mg  Mg8       1.0  0.75054  0.50034  0.50027  1.0000
  Mg  Mg9       1.0  0.00037  0.82282  0.82454  1.0000
  Mg  Mg10      1.0  0.50045  0.82281  0.82455  1.0000
  Mg  Mg11      1.0  0.00038  0.17841  0.17614  1.0000
  Mg  Mg12      1.0  0.50025  0.17837  0.17614  1.0000
  Mg  Mg13      1.0  0.00039  0.32270  0.67612  1.0000
  Mg  Mg14      1.0  0.50039  0.32267  0.67613  1.0000
  Mg  Mg15      1.0  0.00033  0.67835  0.32463  1.0000
  Mg  Mg16      1.0  0.50035  0.67825  0.32461  1.0000
  Mg  Mg17      1.0  0.25053  0.85362  0.67412  1.0000
  Mg  Mg18      1.0  0.75051  0.85360  0.67409  1.0000
  Mg  Mg19      1.0  0.25038  0.14736  0.32657  1.0000
  Mg  Mg20      1.0  0.75040  0.14732  0.32668  1.0000
  Mg  Mg21      1.0  0.25038  0.35361  0.82668  1.0000
  Mg  Mg22      1.0  0.75037  0.35366  0.82668  1.0000
  Mg  Mg23      1.0  0.25041  0.64752  0.17401  1.0000
  Mg  Mg24      1.0  0.75039  0.64740  0.17414  1.0000
  Mg  Mg25      1.0  0.37922  0.74922  0.00497  1.0000
  Mg  Mg26      1.0  0.87915  0.74926  0.00504  1.0000
  Mg  Mg27      1.0  0.37920  0.25206  0.99569  1.0000
  Mg  Mg28      1.0  0.87920  0.25207  0.99569  1.0000
  Mg  Mg29      1.0  0.12178  0.24907  0.49555  1.0000
  Mg  Mg30      1.0  0.62175  0.24899  0.49560  1.0000
  Mg  Mg31      1.0  0.12180  0.75181  0.50510  1.0000
  Mg  Mg32      1.0  0.62178  0.75180  0.50505  1.0000
  Mg  Mg33      1.0  0.12164  0.25208  0.99563  1.0000
  Mg  Mg34      1.0  0.62166  0.25206  0.99562  1.0000
  Mg  Mg35      1.0  0.12169  0.74927  0.00499  1.0000
  Mg  Mg36      1.0  0.62172  0.74926  0.00508  1.0000
  Mg  Mg37      1.0  0.37926  0.75174  0.50507  1.0000
  Mg  Mg38      1.0  0.87926  0.75179  0.50508  1.0000
  Mg  Mg39      1.0  0.37927  0.24897  0.49563  1.0000
  Mg  Mg40      1.0  0.87930  0.24899  0.49565  1.0000
  Mg  Mg41      1.0  0.37738  0.58145  0.66877  1.0000
  Mg  Mg42      1.0  0.87732  0.58148  0.66874  1.0000
  Mg  Mg43      1.0  0.37735  0.41939  0.33194  1.0000
  Mg  Mg44      1.0  0.87742  0.41933  0.33191  1.0000
  Mg  Mg45      1.0  0.12350  0.08161  0.83191  1.0000
  Mg  Mg46      1.0  0.62350  0.08156  0.83190  1.0000
  Mg  Mg47      1.0  0.12346  0.91954  0.16875  1.0000
  Mg  Mg48      1.0  0.62346  0.91962  0.16877  1.0000
  Mg  Mg49      1.0  0.12353  0.41961  0.33188  1.0000
  Mg  Mg50      1.0  0.62349  0.41943  0.33186  1.0000
  Mg  Mg51      1.0  0.12349  0.58145  0.66878  1.0000
  Mg  Mg52      1.0  0.62353  0.58147  0.66873  1.0000
  Mg  Mg53      1.0  0.37727  0.91949  0.16876  1.0000
  Mg  Mg54      1.0  0.87726  0.91959  0.16878  1.0000
  Mg  Mg55      1.0  0.37740  0.08176  0.83196  1.0000
  Mg  Mg56      1.0  0.87739  0.08174  0.83196  1.0000
  Ge  Ge1       1.0  0.00050  0.00061  0.00041  1.0000
  Ge  Ge2       1.0  0.50051  0.00060  0.00040  1.0000
  Ge  Ge3       1.0  0.00059  0.50037  0.50038  1.0000
  Ge  Ge4       1.0  0.50059  0.50032  0.50037  1.0000
  Ge  Ge5       1.0  0.00038  0.49946  0.87463  1.0000
  Ge  Ge6       1.0  0.50045  0.49945  0.87463  1.0000
  Ge  Ge7       1.0  0.00040  0.50192  0.12604  1.0000
  Ge  Ge8       1.0  0.50043  0.50185  0.12603  1.0000
  Ge  Ge9       1.0  0.00058  0.99927  0.62598  1.0000
  Ge  Ge10      1.0  0.50054  0.99923  0.62599  1.0000
  Ge  Ge11      1.0  0.00048  0.00162  0.37462  1.0000
  Ge  Ge12      1.0  0.50043  0.00157  0.37461  1.0000
  Ge  Ge13      1.0  0.25040  0.67562  0.81420  1.0000
  Ge  Ge14      1.0  0.75036  0.67566  0.81422  1.0000
  Ge  Ge15      1.0  0.25031  0.32542  0.18642  1.0000
  Ge  Ge16      1.0  0.75033  0.32516  0.18645  1.0000
  Ge  Ge17      1.0  0.25041  0.17576  0.68643  1.0000
  Ge  Ge18      1.0  0.75040  0.17576  0.68646  1.0000
  Ge  Ge19      1.0  0.25032  0.82526  0.31425  1.0000
  Ge  Ge20      1.0  0.75030  0.82533  0.31425  1.0000
  O   O1        1.0  0.00041  0.66447  0.91678  1.0000
  O   O2        1.0  0.50052  0.66445  0.91679  1.0000
  O   O3        1.0  0.00041  0.33690  0.08393  1.0000
  O   O4        1.0  0.50042  0.33684  0.08391  1.0000
  O   O5        1.0  0.00055  0.16427  0.58386  1.0000
  O   O6        1.0  0.50051  0.16423  0.58388  1.0000
  O   O7        1.0  0.00057  0.83666  0.41686  1.0000
  O   O8        1.0  0.50050  0.83660  0.41682  1.0000
  O   O9        1.0  0.00053  0.65238  0.57890  1.0000
  O   O10       1.0  0.50054  0.65233  0.57887  1.0000
  O   O11       1.0  0.00054  0.34846  0.42177  1.0000
  O   O12       1.0  0.50052  0.34839  0.42178  1.0000
  O   O13       1.0  0.00047  0.15264  0.92184  1.0000
  O   O14       1.0  0.50048  0.15262  0.92183  1.0000
  O   O15       1.0  0.00043  0.84864  0.07889  1.0000
  O   O16       1.0  0.50043  0.84863  0.07889  1.0000
  O   O17       1.0  0.00046  0.99773  0.74904  1.0000
  O   O18       1.0  0.50045  0.99770  0.74905  1.0000
  O   O19       1.0  0.00039  0.00335  0.25159  1.0000
  O   O20       1.0  0.50032  0.00332  0.25158  1.0000
  O   O21       1.0  0.00034  0.49767  0.75160  1.0000
  O   O22       1.0  0.50042  0.49767  0.75160  1.0000
  O   O23       1.0  0.00042  0.50346  0.24908  1.0000
  O   O24       1.0  0.50041  0.50333  0.24907  1.0000
  O   O25       1.0  0.25043  0.67101  0.93320  1.0000
  O   O26       1.0  0.75040  0.67102  0.93323  1.0000
  O   O27       1.0  0.25038  0.33031  0.06742  1.0000
  O   O28       1.0  0.75038  0.33022  0.06745  1.0000
  O   O29       1.0  0.25046  0.17084  0.56743  1.0000
  O   O30       1.0  0.75048  0.17084  0.56746  1.0000
  O   O31       1.0  0.25052  0.83003  0.43325  1.0000
  O   O32       1.0  0.75051  0.83010  0.43325  1.0000
  O   O33       1.0  0.25053  0.66867  0.58655  1.0000
  O   O34       1.0  0.75051  0.66870  0.58650  1.0000
  O   O35       1.0  0.25051  0.33214  0.41413  1.0000
  O   O36       1.0  0.75052  0.33201  0.41412  1.0000
  O   O37       1.0  0.25046  0.16903  0.91417  1.0000
  O   O38       1.0  0.75046  0.16901  0.91415  1.0000
  O   O39       1.0  0.25043  0.83231  0.08649  1.0000
  O   O40       1.0  0.75042  0.83238  0.08653  1.0000
  O   O41       1.0  0.25050  0.02200  0.74435  1.0000
  O   O42       1.0  0.75050  0.02198  0.74434  1.0000
  O   O43       1.0  0.25031  0.97901  0.25637  1.0000
  O   O44       1.0  0.75030  0.97907  0.25639  1.0000
  O   O45       1.0  0.25036  0.52188  0.75636  1.0000
  O   O46       1.0  0.75035  0.52192  0.75636  1.0000
  O   O47       1.0  0.25047  0.47917  0.24428  1.0000
  O   O48       1.0  0.75046  0.47894  0.24431  1.0000
  O   O49       1.0  0.38789  0.92270  0.92444  1.0000
  O   O50       1.0  0.88788  0.92272  0.92445  1.0000
  O   O51       1.0  0.38782  0.07859  0.07628  1.0000
  O   O52       1.0  0.88783  0.07862  0.07628  1.0000
  O   O53       1.0  0.11316  0.42242  0.57628  1.0000
  O   O54       1.0  0.61319  0.42239  0.57626  1.0000
  O   O55       1.0  0.11322  0.57840  0.42447  1.0000
  O   O56       1.0  0.61320  0.57833  0.42442  1.0000
  O   O57       1.0  0.11309  0.07862  0.07630  1.0000
  O   O58       1.0  0.61308  0.07861  0.07628  1.0000
  O   O59       1.0  0.11312  0.92271  0.92445  1.0000
  O   O60       1.0  0.61313  0.92269  0.92445  1.0000
  O   O61       1.0  0.38795  0.57834  0.42445  1.0000
  O   O62       1.0  0.88797  0.57839  0.42444  1.0000
  O   O63       1.0  0.38793  0.42238  0.57626  1.0000
  O   O64       1.0  0.88790  0.42243  0.57623  1.0000
  O   O65       1.0  0.37588  0.91920  0.58586  1.0000
  O   O66       1.0  0.87590  0.91925  0.58586  1.0000
  O   O67       1.0  0.37576  0.08156  0.41479  1.0000
  O   O68       1.0  0.87582  0.08157  0.41483  1.0000
  O   O69       1.0  0.12505  0.41951  0.91482  1.0000
  O   O70       1.0  0.62509  0.41951  0.91487  1.0000
  O   O71       1.0  0.12507  0.58188  0.08583  1.0000
  O   O72       1.0  0.62510  0.58184  0.08590  1.0000
  O   O73       1.0  0.12514  0.08161  0.41480  1.0000
  O   O74       1.0  0.62509  0.08152  0.41484  1.0000
  O   O75       1.0  0.12526  0.91928  0.58588  1.0000
  O   O76       1.0  0.62522  0.91924  0.58587  1.0000
  O   O77       1.0  0.37578  0.58184  0.08583  1.0000
  O   O78       1.0  0.87573  0.58186  0.08590  1.0000
  O   O79       1.0  0.37575  0.41952  0.91483  1.0000
  O   O80       1.0  0.87571  0.41954  0.91487  1.0000
  O   O81       1.0  0.36503  0.74959  0.75648  1.0000
  O   O82       1.0  0.86499  0.74962  0.75646  1.0000
  O   O83       1.0  0.36482  0.25130  0.24418  1.0000
  O   O84       1.0  0.86490  0.25116  0.24423  1.0000
  O   O85       1.0  0.13581  0.24967  0.74423  1.0000
  O   O86       1.0  0.63581  0.24966  0.74425  1.0000
  O   O87       1.0  0.13574  0.75134  0.25645  1.0000
  O   O88       1.0  0.63574  0.75135  0.25647  1.0000
  O   O89       1.0  0.13574  0.25152  0.24424  1.0000
  O   O90       1.0  0.63576  0.25124  0.24425  1.0000
  O   O91       1.0  0.13582  0.74965  0.75644  1.0000
  O   O92       1.0  0.63584  0.74966  0.75642  1.0000
  O   O93       1.0  0.36492  0.75133  0.25649  1.0000
  O   O94       1.0  0.86491  0.75138  0.25651  1.0000
  O   O95       1.0  0.36492  0.24980  0.74422  1.0000
  O   O96       1.0  0.86494  0.24981  0.74424  1.0000
