data_image0
_chemical_formula_structural       Ca48O48
_chemical_formula_sum              "Ca48 O48"
_cell_length_a       11.7766
_cell_length_b       11.2731
_cell_length_c       10.1982
_cell_angle_alpha    81.3285
_cell_angle_beta     89.9998
_cell_angle_gamma    85.0069

_space_group_name_H-M_alt    "P 1"
_space_group_IT_number       1

loop_
  _space_group_symop_operation_xyz
  'x, y, z'

loop_
  _atom_site_type_symbol
  _atom_site_label
  _atom_site_symmetry_multiplicity
  _atom_site_fract_x
  _atom_site_fract_y
  _atom_site_fract_z
  _atom_site_occupancy
  Ca  Ca1       1.0  0.00054  0.00045  0.00040  1.0000
  Ca  Ca2       1.0  0.00040  0.00031  0.33369  1.0000
  Ca  Ca3       1.0  0.00044  0.00062  0.66709  1.0000
  Ca  Ca4       1.0  0.06283  0.25039  0.12542  1.0000
  Ca  Ca5       1.0  0.06268  0.25036  0.45865  1.0000
  Ca  Ca6       1.0  0.06289  0.25041  0.79200  1.0000
  Ca  Ca7       1.0  0.12530  0.50037  0.25044  1.0000
  Ca  Ca8       1.0  0.12528  0.50045  0.58364  1.0000
  Ca  Ca9       1.0  0.12542  0.50045  0.91708  1.0000
  Ca  Ca10      1.0  0.18791  0.75040  0.04212  1.0000
  Ca  Ca11      1.0  0.18784  0.75045  0.37544  1.0000
  Ca  Ca12      1.0  0.18796  0.75046  0.70878  1.0000
  Ca  Ca13      1.0  0.25039  0.00045  0.16721  1.0000
  Ca  Ca14      1.0  0.25038  0.00044  0.50043  1.0000
  Ca  Ca15      1.0  0.25048  0.00044  0.83380  1.0000
  Ca  Ca16      1.0  0.31279  0.25049  0.29208  1.0000
  Ca  Ca17      1.0  0.31279  0.25037  0.62543  1.0000
  Ca  Ca18      1.0  0.31286  0.25050  0.95882  1.0000
  Ca  Ca19      1.0  0.37531  0.50044  0.08372  1.0000
  Ca  Ca20      1.0  0.37537  0.50038  0.41724  1.0000
  Ca  Ca21      1.0  0.37531  0.50048  0.75043  1.0000
  Ca  Ca22      1.0  0.43782  0.75041  0.20889  1.0000
  Ca  Ca23      1.0  0.43785  0.75055  0.54205  1.0000
  Ca  Ca24      1.0  0.43791  0.75039  0.87544  1.0000
  Ca  Ca25      1.0  0.50038  0.00035  0.00034  1.0000
  Ca  Ca26      1.0  0.50037  0.00043  0.33372  1.0000
  Ca  Ca27      1.0  0.50043  0.00049  0.66709  1.0000
  Ca  Ca28      1.0  0.56286  0.25047  0.12532  1.0000
  Ca  Ca29      1.0  0.56281  0.25046  0.45874  1.0000
  Ca  Ca30      1.0  0.56268  0.25052  0.79206  1.0000
  Ca  Ca31      1.0  0.62525  0.50040  0.25046  1.0000
  Ca  Ca32      1.0  0.62529  0.50050  0.58384  1.0000
  Ca  Ca33      1.0  0.62540  0.50044  0.91719  1.0000
  Ca  Ca34      1.0  0.68791  0.75052  0.04192  1.0000
  Ca  Ca35      1.0  0.68788  0.75057  0.37535  1.0000
  Ca  Ca36      1.0  0.68789  0.75052  0.70870  1.0000
  Ca  Ca37      1.0  0.75034  0.00041  0.16704  1.0000
  Ca  Ca38      1.0  0.75048  0.00050  0.50034  1.0000
  Ca  Ca39      1.0  0.75048  0.00050  0.83368  1.0000
  Ca  Ca40      1.0  0.81283  0.25049  0.29207  1.0000
  Ca  Ca41      1.0  0.81279  0.25051  0.62536  1.0000
  Ca  Ca42      1.0  0.81287  0.25035  0.95872  1.0000
  Ca  Ca43      1.0  0.87538  0.50038  0.08371  1.0000
  Ca  Ca44      1.0  0.87529  0.50051  0.41702  1.0000
  Ca  Ca45      1.0  0.87540  0.50045  0.75043  1.0000
  Ca  Ca46      1.0  0.93796  0.75041  0.20867  1.0000
  Ca  Ca47      1.0  0.93789  0.75049  0.54200  1.0000
  Ca  Ca48      1.0  0.93800  0.75047  0.87530  1.0000
  O   O1        1.0  0.15654  0.12536  0.31289  1.0000
  O   O2        1.0  0.15663  0.12541  0.64621  1.0000
  O   O3        1.0  0.15662  0.12550  0.97962  1.0000
  O   O4        1.0  0.21901  0.37543  0.43787  1.0000
  O   O5        1.0  0.21911  0.37545  0.77120  1.0000
  O   O6        1.0  0.21913  0.37545  0.10466  1.0000
  O   O7        1.0  0.28168  0.62548  0.56288  1.0000
  O   O8        1.0  0.28152  0.62547  0.89622  1.0000
  O   O9        1.0  0.28162  0.62541  0.22967  1.0000
  O   O10       1.0  0.34404  0.87549  0.35466  1.0000
  O   O11       1.0  0.34421  0.87550  0.68793  1.0000
  O   O12       1.0  0.34420  0.87542  0.02131  1.0000
  O   O13       1.0  0.40664  0.12539  0.47954  1.0000
  O   O14       1.0  0.40651  0.12544  0.81291  1.0000
  O   O15       1.0  0.40666  0.12549  0.14628  1.0000
  O   O16       1.0  0.46904  0.37537  0.60463  1.0000
  O   O17       1.0  0.46914  0.37550  0.93796  1.0000
  O   O18       1.0  0.46907  0.37551  0.27130  1.0000
  O   O19       1.0  0.53170  0.62551  0.39636  1.0000
  O   O20       1.0  0.53166  0.62548  0.72964  1.0000
  O   O21       1.0  0.53168  0.62555  0.06299  1.0000
  O   O22       1.0  0.59420  0.87542  0.52116  1.0000
  O   O23       1.0  0.59419  0.87550  0.85450  1.0000
  O   O24       1.0  0.59405  0.87550  0.18789  1.0000
  O   O25       1.0  0.65663  0.12544  0.31287  1.0000
  O   O26       1.0  0.65657  0.12548  0.64622  1.0000
  O   O27       1.0  0.65650  0.12539  0.97947  1.0000
  O   O28       1.0  0.71891  0.37553  0.43789  1.0000
  O   O29       1.0  0.71912  0.37549  0.77129  1.0000
  O   O30       1.0  0.71912  0.37540  0.10460  1.0000
  O   O31       1.0  0.78163  0.62543  0.56298  1.0000
  O   O32       1.0  0.78167  0.62562  0.89612  1.0000
  O   O33       1.0  0.78156  0.62554  0.22944  1.0000
  O   O34       1.0  0.84411  0.87547  0.35439  1.0000
  O   O35       1.0  0.84425  0.87559  0.68782  1.0000
  O   O36       1.0  0.84422  0.87554  0.02110  1.0000
  O   O37       1.0  0.90653  0.12548  0.47963  1.0000
  O   O38       1.0  0.90661  0.12552  0.81293  1.0000
  O   O39       1.0  0.90652  0.12533  0.14630  1.0000
  O   O40       1.0  0.96904  0.37545  0.60452  1.0000
  O   O41       1.0  0.96913  0.37542  0.93791  1.0000
  O   O42       1.0  0.96903  0.37550  0.27125  1.0000
  O   O43       1.0  0.03156  0.62547  0.39626  1.0000
  O   O44       1.0  0.03174  0.62542  0.72955  1.0000
  O   O45       1.0  0.03159  0.62540  0.06286  1.0000
  O   O46       1.0  0.09410  0.87553  0.52132  1.0000
  O   O47       1.0  0.09429  0.87553  0.85463  1.0000
  O   O48       1.0  0.09423  0.87541  0.18791  1.0000
