data_image0
_chemical_formula_structural       Ti16Nb48O96
_chemical_formula_sum              "Ti16 Nb48 O96"
_cell_length_a       13.3584
_cell_length_b       13.3583
_cell_length_c       13.3587
_cell_angle_alpha    73.2889
_cell_angle_beta     73.2913
_cell_angle_gamma    73.2881

_space_group_name_H-M_alt    "P 1"
_space_group_IT_number       1

loop_
  _space_group_symop_operation_xyz
  'x, y, z'

loop_
  _atom_site_type_symbol
  _atom_site_label
  _atom_site_symmetry_multiplicity
  _atom_site_fract_x
  _atom_site_fract_y
  _atom_site_fract_z
  _atom_site_occupancy
  Ti  Ti1       1.0  0.13678  0.13695  0.13704  1.0000
  Ti  Ti2       1.0  0.13686  0.13691  0.63700  1.0000
  Ti  Ti3       1.0  0.13683  0.63695  0.13709  1.0000
  Ti  Ti4       1.0  0.13690  0.63692  0.63704  1.0000
  Ti  Ti5       1.0  0.63676  0.13689  0.13708  1.0000
  Ti  Ti6       1.0  0.63682  0.13695  0.63703  1.0000
  Ti  Ti7       1.0  0.63688  0.63690  0.13706  1.0000
  Ti  Ti8       1.0  0.63692  0.63696  0.63706  1.0000
  Ti  Ti9       1.0  0.36362  0.36367  0.36374  1.0000
  Ti  Ti10      1.0  0.36356  0.36362  0.86374  1.0000
  Ti  Ti11      1.0  0.36351  0.86365  0.36375  1.0000
  Ti  Ti12      1.0  0.36348  0.86363  0.86371  1.0000
  Ti  Ti13      1.0  0.86360  0.36364  0.36375  1.0000
  Ti  Ti14      1.0  0.86360  0.36361  0.86375  1.0000
  Ti  Ti15      1.0  0.86352  0.86361  0.36378  1.0000
  Ti  Ti16      1.0  0.86347  0.86360  0.86376  1.0000
  Nb  Nb1       1.0  0.05953  0.47203  0.35288  1.0000
  Nb  Nb2       1.0  0.05953  0.47208  0.85286  1.0000
  Nb  Nb3       1.0  0.05945  0.97204  0.35286  1.0000
  Nb  Nb4       1.0  0.05939  0.97207  0.85287  1.0000
  Nb  Nb5       1.0  0.55954  0.47212  0.35287  1.0000
  Nb  Nb6       1.0  0.55950  0.47204  0.85288  1.0000
  Nb  Nb7       1.0  0.55946  0.97208  0.35284  1.0000
  Nb  Nb8       1.0  0.55942  0.97207  0.85285  1.0000
  Nb  Nb9       1.0  0.47197  0.35272  0.05972  1.0000
  Nb  Nb10      1.0  0.47201  0.35279  0.55968  1.0000
  Nb  Nb11      1.0  0.47196  0.85273  0.05969  1.0000
  Nb  Nb12      1.0  0.47200  0.85277  0.55966  1.0000
  Nb  Nb13      1.0  0.97200  0.35274  0.05972  1.0000
  Nb  Nb14      1.0  0.97206  0.35269  0.55970  1.0000
  Nb  Nb15      1.0  0.97186  0.85278  0.05974  1.0000
  Nb  Nb16      1.0  0.97194  0.85272  0.55972  1.0000
  Nb  Nb17      1.0  0.35262  0.05959  0.47218  1.0000
  Nb  Nb18      1.0  0.35258  0.05957  0.97217  1.0000
  Nb  Nb19      1.0  0.35267  0.55963  0.47217  1.0000
  Nb  Nb20      1.0  0.35264  0.55958  0.97213  1.0000
  Nb  Nb21      1.0  0.85267  0.05958  0.47216  1.0000
  Nb  Nb22      1.0  0.85258  0.05962  0.97218  1.0000
  Nb  Nb23      1.0  0.85273  0.55952  0.47223  1.0000
  Nb  Nb24      1.0  0.85264  0.55956  0.97220  1.0000
  Nb  Nb25      1.0  0.44080  0.02850  0.14794  1.0000
  Nb  Nb26      1.0  0.44090  0.02850  0.64793  1.0000
  Nb  Nb27      1.0  0.44086  0.52853  0.14791  1.0000
  Nb  Nb28      1.0  0.44096  0.52855  0.64790  1.0000
  Nb  Nb29      1.0  0.94082  0.02856  0.14794  1.0000
  Nb  Nb30      1.0  0.94089  0.02848  0.64795  1.0000
  Nb  Nb31      1.0  0.94093  0.52850  0.14796  1.0000
  Nb  Nb32      1.0  0.94101  0.52847  0.64794  1.0000
  Nb  Nb33      1.0  0.02841  0.14782  0.44110  1.0000
  Nb  Nb34      1.0  0.02837  0.14784  0.94109  1.0000
  Nb  Nb35      1.0  0.02847  0.64781  0.44112  1.0000
  Nb  Nb36      1.0  0.02840  0.64784  0.94108  1.0000
  Nb  Nb37      1.0  0.52835  0.14783  0.44109  1.0000
  Nb  Nb38      1.0  0.52833  0.14782  0.94110  1.0000
  Nb  Nb39      1.0  0.52848  0.64786  0.44111  1.0000
  Nb  Nb40      1.0  0.52840  0.64782  0.94114  1.0000
  Nb  Nb41      1.0  0.14776  0.44101  0.02862  1.0000
  Nb  Nb42      1.0  0.14779  0.44097  0.52862  1.0000
  Nb  Nb43      1.0  0.14766  0.94100  0.02865  1.0000
  Nb  Nb44      1.0  0.14771  0.94097  0.52858  1.0000
  Nb  Nb45      1.0  0.64775  0.44092  0.02865  1.0000
  Nb  Nb46      1.0  0.64780  0.44100  0.52863  1.0000
  Nb  Nb47      1.0  0.64768  0.94101  0.02858  1.0000
  Nb  Nb48      1.0  0.64774  0.94101  0.52860  1.0000
  O   O1        1.0  0.28470  0.08622  0.12974  1.0000
  O   O2        1.0  0.28475  0.08622  0.62979  1.0000
  O   O3        1.0  0.28473  0.58640  0.12970  1.0000
  O   O4        1.0  0.28484  0.58643  0.62970  1.0000
  O   O5        1.0  0.78467  0.08635  0.12973  1.0000
  O   O6        1.0  0.78472  0.08632  0.62972  1.0000
  O   O7        1.0  0.78476  0.58631  0.12974  1.0000
  O   O8        1.0  0.78486  0.58625  0.62975  1.0000
  O   O9        1.0  0.08619  0.12963  0.28491  1.0000
  O   O10       1.0  0.08617  0.12957  0.78493  1.0000
  O   O11       1.0  0.08616  0.62954  0.28503  1.0000
  O   O12       1.0  0.08623  0.62964  0.78494  1.0000
  O   O13       1.0  0.58609  0.12970  0.28493  1.0000
  O   O14       1.0  0.58615  0.12961  0.78497  1.0000
  O   O15       1.0  0.58625  0.62963  0.28496  1.0000
  O   O16       1.0  0.58631  0.62948  0.78499  1.0000
  O   O17       1.0  0.12956  0.28485  0.08639  1.0000
  O   O18       1.0  0.12964  0.28478  0.58633  1.0000
  O   O19       1.0  0.12942  0.78486  0.08645  1.0000
  O   O20       1.0  0.12943  0.78485  0.58641  1.0000
  O   O21       1.0  0.62952  0.28480  0.08642  1.0000
  O   O22       1.0  0.62950  0.28489  0.58649  1.0000
  O   O23       1.0  0.62951  0.78482  0.08633  1.0000
  O   O24       1.0  0.62955  0.78486  0.58640  1.0000
  O   O25       1.0  0.21567  0.41431  0.37106  1.0000
  O   O26       1.0  0.21566  0.41434  0.87104  1.0000
  O   O27       1.0  0.21559  0.91427  0.37104  1.0000
  O   O28       1.0  0.21555  0.91419  0.87111  1.0000
  O   O29       1.0  0.71570  0.41431  0.37105  1.0000
  O   O30       1.0  0.71570  0.41429  0.87109  1.0000
  O   O31       1.0  0.71556  0.91424  0.37112  1.0000
  O   O32       1.0  0.71557  0.91428  0.87102  1.0000
  O   O33       1.0  0.41419  0.37095  0.21586  1.0000
  O   O34       1.0  0.41414  0.37105  0.71580  1.0000
  O   O35       1.0  0.41418  0.87096  0.21586  1.0000
  O   O36       1.0  0.41422  0.87097  0.71579  1.0000
  O   O37       1.0  0.91423  0.37090  0.21585  1.0000
  O   O38       1.0  0.91434  0.37092  0.71586  1.0000
  O   O39       1.0  0.91406  0.87103  0.21588  1.0000
  O   O40       1.0  0.91414  0.87094  0.71583  1.0000
  O   O41       1.0  0.37082  0.21576  0.41444  1.0000
  O   O42       1.0  0.37074  0.21574  0.91438  1.0000
  O   O43       1.0  0.37094  0.71573  0.41432  1.0000
  O   O44       1.0  0.37084  0.71574  0.91429  1.0000
  O   O45       1.0  0.87089  0.21571  0.41440  1.0000
  O   O46       1.0  0.87083  0.21573  0.91442  1.0000
  O   O47       1.0  0.87094  0.71569  0.41438  1.0000
  O   O48       1.0  0.87078  0.71570  0.91439  1.0000
  O   O49       1.0  0.01643  0.32408  0.39981  1.0000
  O   O50       1.0  0.01634  0.32413  0.89992  1.0000
  O   O51       1.0  0.01632  0.82412  0.39985  1.0000
  O   O52       1.0  0.01626  0.82412  0.89991  1.0000
  O   O53       1.0  0.51635  0.32412  0.39986  1.0000
  O   O54       1.0  0.51633  0.32409  0.89992  1.0000
  O   O55       1.0  0.51642  0.82408  0.39988  1.0000
  O   O56       1.0  0.51634  0.82409  0.89985  1.0000
  O   O57       1.0  0.32406  0.39971  0.01655  1.0000
  O   O58       1.0  0.32403  0.39976  0.51661  1.0000
  O   O59       1.0  0.32399  0.89971  0.01657  1.0000
  O   O60       1.0  0.32401  0.89972  0.51661  1.0000
  O   O61       1.0  0.82409  0.39967  0.01656  1.0000
  O   O62       1.0  0.82408  0.39965  0.51663  1.0000
  O   O63       1.0  0.82394  0.89973  0.01655  1.0000
  O   O64       1.0  0.82401  0.89976  0.51658  1.0000
  O   O65       1.0  0.10076  0.48414  0.17661  1.0000
  O   O66       1.0  0.10087  0.48408  0.67654  1.0000
  O   O67       1.0  0.10066  0.98409  0.17657  1.0000
  O   O68       1.0  0.10070  0.98409  0.67655  1.0000
  O   O69       1.0  0.60068  0.48416  0.17656  1.0000
  O   O70       1.0  0.60078  0.48418  0.67657  1.0000
  O   O71       1.0  0.60068  0.98409  0.17655  1.0000
  O   O72       1.0  0.60077  0.98410  0.67659  1.0000
  O   O73       1.0  0.17634  0.10082  0.48426  1.0000
  O   O74       1.0  0.17631  0.10077  0.98425  1.0000
  O   O75       1.0  0.17645  0.60088  0.48420  1.0000
  O   O76       1.0  0.17636  0.60087  0.98424  1.0000
  O   O77       1.0  0.67633  0.10081  0.48427  1.0000
  O   O78       1.0  0.67625  0.10090  0.98422  1.0000
  O   O79       1.0  0.67641  0.60084  0.48427  1.0000
  O   O80       1.0  0.67638  0.60081  0.98423  1.0000
  O   O81       1.0  0.48394  0.17644  0.10097  1.0000
  O   O82       1.0  0.48405  0.17648  0.60089  1.0000
  O   O83       1.0  0.48403  0.67645  0.10097  1.0000
  O   O84       1.0  0.48414  0.67646  0.60094  1.0000
  O   O85       1.0  0.98400  0.17646  0.10094  1.0000
  O   O86       1.0  0.98411  0.17645  0.60090  1.0000
  O   O87       1.0  0.98404  0.67647  0.10091  1.0000
  O   O88       1.0  0.98406  0.67645  0.60094  1.0000
  O   O89       1.0  0.39958  0.01640  0.32426  1.0000
  O   O90       1.0  0.39956  0.01642  0.82420  1.0000
  O   O91       1.0  0.39974  0.51645  0.32422  1.0000
  O   O92       1.0  0.39966  0.51651  0.82420  1.0000
  O   O93       1.0  0.89958  0.01648  0.32422  1.0000
  O   O94       1.0  0.89956  0.01648  0.82422  1.0000
  O   O95       1.0  0.89964  0.51647  0.32426  1.0000
  O   O96       1.0  0.89976  0.51646  0.82423  1.0000
