data_image0
_chemical_formula_structural       Na32Sn48O112
_chemical_formula_sum              "Na32 Sn48 O112"
_cell_length_a       16.4517
_cell_length_b       12.5226
_cell_length_c       11.8728
_cell_angle_alpha    90.0015
_cell_angle_beta     89.9843
_cell_angle_gamma    89.999

_space_group_name_H-M_alt    "P 1"
_space_group_IT_number       1

loop_
  _space_group_symop_operation_xyz
  'x, y, z'

loop_
  _atom_site_type_symbol
  _atom_site_label
  _atom_site_symmetry_multiplicity
  _atom_site_fract_x
  _atom_site_fract_y
  _atom_site_fract_z
  _atom_site_occupancy
  Na  Na1       1.0  0.30848  0.06249  0.43879  1.0000
  Na  Na2       1.0  0.30843  0.31250  0.43882  1.0000
  Na  Na3       1.0  0.30847  0.56249  0.43880  1.0000
  Na  Na4       1.0  0.30847  0.81248  0.43881  1.0000
  Na  Na5       1.0  0.69210  0.18751  0.56328  1.0000
  Na  Na6       1.0  0.69208  0.43751  0.56334  1.0000
  Na  Na7       1.0  0.69218  0.68747  0.56360  1.0000
  Na  Na8       1.0  0.69157  0.93749  0.56125  1.0000
  Na  Na9       1.0  0.19154  0.18750  0.93874  1.0000
  Na  Na10      1.0  0.19153  0.43751  0.93876  1.0000
  Na  Na11      1.0  0.19154  0.68749  0.93871  1.0000
  Na  Na12      1.0  0.19167  0.93752  0.93880  1.0000
  Na  Na13      1.0  0.80834  0.06255  0.06141  1.0000
  Na  Na14      1.0  0.80833  0.31253  0.06148  1.0000
  Na  Na15      1.0  0.80868  0.56252  0.06276  1.0000
  Na  Na16      1.0  0.80851  0.81249  0.06163  1.0000
  Na  Na17      1.0  0.43479  0.06278  0.89098  1.0000
  Na  Na18      1.0  0.43481  0.31277  0.89097  1.0000
  Na  Na19      1.0  0.43482  0.56279  0.89095  1.0000
  Na  Na20      1.0  0.43484  0.81278  0.89095  1.0000
  Na  Na21      1.0  0.56564  0.18776  0.10931  1.0000
  Na  Na22      1.0  0.56576  0.43776  0.10931  1.0000
  Na  Na23      1.0  0.56580  0.68773  0.10928  1.0000
  Na  Na24      1.0  0.56565  0.93775  0.10925  1.0000
  Na  Na25      1.0  0.06605  0.18758  0.39105  1.0000
  Na  Na26      1.0  0.06603  0.43758  0.39108  1.0000
  Na  Na27      1.0  0.06605  0.68758  0.39106  1.0000
  Na  Na28      1.0  0.06605  0.93758  0.39106  1.0000
  Na  Na29      1.0  0.93525  0.06276  0.60956  1.0000
  Na  Na30      1.0  0.93526  0.31277  0.60958  1.0000
  Na  Na31      1.0  0.93526  0.56276  0.60963  1.0000
  Na  Na32      1.0  0.93526  0.81277  0.60959  1.0000
  Sn  Sn1       1.0  0.02187  0.06289  0.11703  1.0000
  Sn  Sn2       1.0  0.02190  0.31289  0.11703  1.0000
  Sn  Sn3       1.0  0.02192  0.56289  0.11703  1.0000
  Sn  Sn4       1.0  0.02191  0.81289  0.11701  1.0000
  Sn  Sn5       1.0  0.97872  0.18787  0.88388  1.0000
  Sn  Sn6       1.0  0.97876  0.43789  0.88393  1.0000
  Sn  Sn7       1.0  0.97873  0.68789  0.88392  1.0000
  Sn  Sn8       1.0  0.97874  0.93788  0.88389  1.0000
  Sn  Sn9       1.0  0.47867  0.18789  0.61688  1.0000
  Sn  Sn10      1.0  0.47864  0.43790  0.61690  1.0000
  Sn  Sn11      1.0  0.47867  0.68791  0.61689  1.0000
  Sn  Sn12      1.0  0.47864  0.93791  0.61688  1.0000
  Sn  Sn13      1.0  0.52189  0.06289  0.38373  1.0000
  Sn  Sn14      1.0  0.52187  0.31288  0.38380  1.0000
  Sn  Sn15      1.0  0.52189  0.56288  0.38377  1.0000
  Sn  Sn16      1.0  0.52186  0.81289  0.38372  1.0000
  Sn  Sn17      1.0  0.28574  0.06290  0.71123  1.0000
  Sn  Sn18      1.0  0.28573  0.31290  0.71123  1.0000
  Sn  Sn19      1.0  0.28575  0.56289  0.71123  1.0000
  Sn  Sn20      1.0  0.28574  0.81290  0.71122  1.0000
  Sn  Sn21      1.0  0.71485  0.18789  0.28971  1.0000
  Sn  Sn22      1.0  0.71484  0.43788  0.28984  1.0000
  Sn  Sn23      1.0  0.71483  0.68789  0.28984  1.0000
  Sn  Sn24      1.0  0.71487  0.93788  0.28946  1.0000
  Sn  Sn25      1.0  0.21483  0.18792  0.21110  1.0000
  Sn  Sn26      1.0  0.21486  0.43791  0.21110  1.0000
  Sn  Sn27      1.0  0.21484  0.68790  0.21110  1.0000
  Sn  Sn28      1.0  0.21485  0.93791  0.21109  1.0000
  Sn  Sn29      1.0  0.78585  0.06290  0.78951  1.0000
  Sn  Sn30      1.0  0.78590  0.31294  0.78971  1.0000
  Sn  Sn31      1.0  0.78590  0.56293  0.78994  1.0000
  Sn  Sn32      1.0  0.78585  0.81295  0.78960  1.0000
  Sn  Sn33      1.0  0.38276  0.06292  0.14786  1.0000
  Sn  Sn34      1.0  0.38277  0.31292  0.14790  1.0000
  Sn  Sn35      1.0  0.38277  0.56292  0.14787  1.0000
  Sn  Sn36      1.0  0.38276  0.81292  0.14786  1.0000
  Sn  Sn37      1.0  0.61786  0.18794  0.85274  1.0000
  Sn  Sn38      1.0  0.61787  0.43794  0.85274  1.0000
  Sn  Sn39      1.0  0.61786  0.68795  0.85275  1.0000
  Sn  Sn40      1.0  0.61785  0.93795  0.85265  1.0000
  Sn  Sn41      1.0  0.11788  0.18789  0.64791  1.0000
  Sn  Sn42      1.0  0.11790  0.43789  0.64792  1.0000
  Sn  Sn43      1.0  0.11789  0.68789  0.64795  1.0000
  Sn  Sn44      1.0  0.11788  0.93789  0.64795  1.0000
  Sn  Sn45      1.0  0.88278  0.06287  0.35286  1.0000
  Sn  Sn46      1.0  0.88279  0.31287  0.35286  1.0000
  Sn  Sn47      1.0  0.88279  0.56288  0.35294  1.0000
  Sn  Sn48      1.0  0.88279  0.81288  0.35286  1.0000
  O   O1        1.0  0.08737  0.06286  0.54608  1.0000
  O   O2        1.0  0.08735  0.31288  0.54607  1.0000
  O   O3        1.0  0.08733  0.56288  0.54609  1.0000
  O   O4        1.0  0.08735  0.81289  0.54610  1.0000
  O   O5        1.0  0.91331  0.18786  0.45471  1.0000
  O   O6        1.0  0.91333  0.43786  0.45474  1.0000
  O   O7        1.0  0.91331  0.68791  0.45474  1.0000
  O   O8        1.0  0.91333  0.93787  0.45471  1.0000
  O   O9        1.0  0.41333  0.18791  0.04602  1.0000
  O   O10       1.0  0.41332  0.43791  0.04600  1.0000
  O   O11       1.0  0.41332  0.68791  0.04600  1.0000
  O   O12       1.0  0.41331  0.93793  0.04599  1.0000
  O   O13       1.0  0.58733  0.06293  0.95454  1.0000
  O   O14       1.0  0.58733  0.31294  0.95454  1.0000
  O   O15       1.0  0.58733  0.56294  0.95455  1.0000
  O   O16       1.0  0.58731  0.81298  0.95452  1.0000
  O   O17       1.0  0.16362  0.06293  0.75504  1.0000
  O   O18       1.0  0.16365  0.31290  0.75503  1.0000
  O   O19       1.0  0.16364  0.56291  0.75503  1.0000
  O   O20       1.0  0.16363  0.81290  0.75505  1.0000
  O   O21       1.0  0.83703  0.18790  0.24580  1.0000
  O   O22       1.0  0.83698  0.43795  0.24580  1.0000
  O   O23       1.0  0.83696  0.68786  0.24579  1.0000
  O   O24       1.0  0.83701  0.93788  0.24573  1.0000
  O   O25       1.0  0.33693  0.18792  0.25498  1.0000
  O   O26       1.0  0.33693  0.43794  0.25498  1.0000
  O   O27       1.0  0.33695  0.68796  0.25498  1.0000
  O   O28       1.0  0.33693  0.93794  0.25497  1.0000
  O   O29       1.0  0.66374  0.06304  0.74560  1.0000
  O   O30       1.0  0.66380  0.31297  0.74560  1.0000
  O   O31       1.0  0.66382  0.56296  0.74565  1.0000
  O   O32       1.0  0.66372  0.81289  0.74560  1.0000
  O   O33       1.0  0.18775  0.06291  0.31478  1.0000
  O   O34       1.0  0.18776  0.31290  0.31478  1.0000
  O   O35       1.0  0.18776  0.56293  0.31478  1.0000
  O   O36       1.0  0.18775  0.81291  0.31477  1.0000
  O   O37       1.0  0.81300  0.18796  0.68611  1.0000
  O   O38       1.0  0.81302  0.43798  0.68627  1.0000
  O   O39       1.0  0.81302  0.68786  0.68625  1.0000
  O   O40       1.0  0.81288  0.93792  0.68595  1.0000
  O   O41       1.0  0.31275  0.18790  0.81484  1.0000
  O   O42       1.0  0.31275  0.43790  0.81483  1.0000
  O   O43       1.0  0.31277  0.68789  0.81482  1.0000
  O   O44       1.0  0.31277  0.93791  0.81484  1.0000
  O   O45       1.0  0.68783  0.06293  0.18592  1.0000
  O   O46       1.0  0.68784  0.31292  0.18607  1.0000
  O   O47       1.0  0.68778  0.56289  0.18619  1.0000
  O   O48       1.0  0.68782  0.81281  0.18600  1.0000
  O   O49       1.0  0.25406  0.06291  0.09960  1.0000
  O   O50       1.0  0.25406  0.31292  0.09963  1.0000
  O   O51       1.0  0.25407  0.56291  0.09963  1.0000
  O   O52       1.0  0.25407  0.81294  0.09961  1.0000
  O   O53       1.0  0.74653  0.18794  0.90114  1.0000
  O   O54       1.0  0.74649  0.43789  0.90127  1.0000
  O   O55       1.0  0.74650  0.68800  0.90122  1.0000
  O   O56       1.0  0.74650  0.93798  0.90108  1.0000
  O   O57       1.0  0.24652  0.18791  0.59964  1.0000
  O   O58       1.0  0.24651  0.43789  0.59962  1.0000
  O   O59       1.0  0.24652  0.68791  0.59961  1.0000
  O   O60       1.0  0.24652  0.93789  0.59964  1.0000
  O   O61       1.0  0.75406  0.06283  0.40112  1.0000
  O   O62       1.0  0.75412  0.31289  0.40124  1.0000
  O   O63       1.0  0.75410  0.56291  0.40128  1.0000
  O   O64       1.0  0.75406  0.81298  0.40113  1.0000
  O   O65       1.0  0.39591  0.06293  0.62976  1.0000
  O   O66       1.0  0.39590  0.31291  0.62980  1.0000
  O   O67       1.0  0.39591  0.56294  0.62978  1.0000
  O   O68       1.0  0.39591  0.81291  0.62979  1.0000
  O   O69       1.0  0.60458  0.18791  0.37097  1.0000
  O   O70       1.0  0.60458  0.43791  0.37105  1.0000
  O   O71       1.0  0.60456  0.68794  0.37099  1.0000
  O   O72       1.0  0.60466  0.93791  0.37098  1.0000
  O   O73       1.0  0.10466  0.18789  0.12966  1.0000
  O   O74       1.0  0.10469  0.43787  0.12968  1.0000
  O   O75       1.0  0.10467  0.68791  0.12966  1.0000
  O   O76       1.0  0.10468  0.93790  0.12965  1.0000
  O   O77       1.0  0.89595  0.06290  0.87112  1.0000
  O   O78       1.0  0.89600  0.31289  0.87124  1.0000
  O   O79       1.0  0.89603  0.56291  0.87127  1.0000
  O   O80       1.0  0.89598  0.81291  0.87115  1.0000
  O   O81       1.0  0.49305  0.06298  0.22287  1.0000
  O   O82       1.0  0.49306  0.31300  0.22292  1.0000
  O   O83       1.0  0.49307  0.56301  0.22290  1.0000
  O   O84       1.0  0.49307  0.81302  0.22285  1.0000
  O   O85       1.0  0.50754  0.18804  0.77773  1.0000
  O   O86       1.0  0.50755  0.43803  0.77774  1.0000
  O   O87       1.0  0.50756  0.68803  0.77771  1.0000
  O   O88       1.0  0.50753  0.93806  0.77771  1.0000
  O   O89       1.0  0.00757  0.18795  0.72302  1.0000
  O   O90       1.0  0.00758  0.43792  0.72304  1.0000
  O   O91       1.0  0.00758  0.68795  0.72305  1.0000
  O   O92       1.0  0.00756  0.93796  0.72302  1.0000
  O   O93       1.0  0.99319  0.06289  0.27790  1.0000
  O   O94       1.0  0.99319  0.31290  0.27790  1.0000
  O   O95       1.0  0.99317  0.56291  0.27792  1.0000
  O   O96       1.0  0.99319  0.81289  0.27791  1.0000
  O   O97       1.0  0.55329  0.06290  0.55896  1.0000
  O   O98       1.0  0.55328  0.31290  0.55899  1.0000
  O   O99       1.0  0.55329  0.56295  0.55902  1.0000
  O   O100      1.0  0.55327  0.81296  0.55897  1.0000
  O   O101      1.0  0.44726  0.18794  0.44175  1.0000
  O   O102      1.0  0.44724  0.43791  0.44175  1.0000
  O   O103      1.0  0.44722  0.68794  0.44177  1.0000
  O   O104      1.0  0.44723  0.93794  0.44173  1.0000
  O   O105      1.0  0.94732  0.18789  0.05902  1.0000
  O   O106      1.0  0.94733  0.43791  0.05906  1.0000
  O   O107      1.0  0.94734  0.68791  0.05905  1.0000
  O   O108      1.0  0.94731  0.93789  0.05902  1.0000
  O   O109      1.0  0.05336  0.06290  0.94177  1.0000
  O   O110      1.0  0.05339  0.31288  0.94180  1.0000
  O   O111      1.0  0.05340  0.56292  0.94180  1.0000
  O   O112      1.0  0.05336  0.81290  0.94179  1.0000
