data_image0
_chemical_formula_structural       Sr32In32O80
_chemical_formula_sum              "Sr32 In32 O80"
_cell_length_a       11.6879
_cell_length_b       12.1527
_cell_length_c       15.8761
_cell_angle_alpha    89.9974
_cell_angle_beta     89.9986
_cell_angle_gamma    90.0004

_space_group_name_H-M_alt    "P 1"
_space_group_IT_number       1

loop_
  _space_group_symop_operation_xyz
  'x, y, z'

loop_
  _atom_site_type_symbol
  _atom_site_label
  _atom_site_symmetry_multiplicity
  _atom_site_fract_x
  _atom_site_fract_y
  _atom_site_fract_z
  _atom_site_occupancy
  Sr  Sr1       1.0  0.25750  0.01280  0.10739  1.0000
  Sr  Sr2       1.0  0.75753  0.01277  0.10740  1.0000
  Sr  Sr3       1.0  0.25755  0.51281  0.10737  1.0000
  Sr  Sr4       1.0  0.50749  0.26278  0.60740  1.0000
  Sr  Sr5       1.0  0.75756  0.51279  0.10742  1.0000
  Sr  Sr6       1.0  0.00760  0.26276  0.60743  1.0000
  Sr  Sr7       1.0  0.50752  0.76272  0.60735  1.0000
  Sr  Sr8       1.0  0.00756  0.76275  0.60742  1.0000
  Sr  Sr9       1.0  0.00749  0.23806  0.39329  1.0000
  Sr  Sr10      1.0  0.50759  0.23798  0.39324  1.0000
  Sr  Sr11      1.0  0.00748  0.73794  0.39330  1.0000
  Sr  Sr12      1.0  0.25756  0.48797  0.89329  1.0000
  Sr  Sr13      1.0  0.50757  0.73803  0.39326  1.0000
  Sr  Sr14      1.0  0.75758  0.48799  0.89330  1.0000
  Sr  Sr15      1.0  0.25756  0.98801  0.89328  1.0000
  Sr  Sr16      1.0  0.75749  0.98806  0.89328  1.0000
  Sr  Sr17      1.0  0.00759  0.23801  0.10739  1.0000
  Sr  Sr18      1.0  0.50753  0.23803  0.10741  1.0000
  Sr  Sr19      1.0  0.00753  0.73799  0.10740  1.0000
  Sr  Sr20      1.0  0.25756  0.48804  0.60738  1.0000
  Sr  Sr21      1.0  0.50757  0.73804  0.10734  1.0000
  Sr  Sr22      1.0  0.75753  0.48801  0.60740  1.0000
  Sr  Sr23      1.0  0.25752  0.98797  0.60739  1.0000
  Sr  Sr24      1.0  0.75754  0.98795  0.60739  1.0000
  Sr  Sr25      1.0  0.25752  0.01278  0.39325  1.0000
  Sr  Sr26      1.0  0.75750  0.01272  0.39326  1.0000
  Sr  Sr27      1.0  0.25749  0.51278  0.39329  1.0000
  Sr  Sr28      1.0  0.50760  0.26275  0.89328  1.0000
  Sr  Sr29      1.0  0.75758  0.51269  0.39332  1.0000
  Sr  Sr30      1.0  0.00748  0.26276  0.89329  1.0000
  Sr  Sr31      1.0  0.50750  0.76279  0.89322  1.0000
  Sr  Sr32      1.0  0.00758  0.76281  0.89331  1.0000
  In  In1       1.0  0.00075  0.00037  0.00031  1.0000
  In  In2       1.0  0.50075  0.00041  0.00036  1.0000
  In  In3       1.0  0.00080  0.50038  0.00035  1.0000
  In  In4       1.0  0.25080  0.25036  0.50035  1.0000
  In  In5       1.0  0.50079  0.50039  0.00032  1.0000
  In  In6       1.0  0.75076  0.25034  0.50036  1.0000
  In  In7       1.0  0.25077  0.75038  0.50031  1.0000
  In  In8       1.0  0.75071  0.75036  0.50034  1.0000
  In  In9       1.0  0.00075  0.00036  0.50036  1.0000
  In  In10      1.0  0.50075  0.00035  0.50033  1.0000
  In  In11      1.0  0.00075  0.50039  0.50037  1.0000
  In  In12      1.0  0.25079  0.25039  0.00035  1.0000
  In  In13      1.0  0.50077  0.50036  0.50030  1.0000
  In  In14      1.0  0.75077  0.25039  0.00039  1.0000
  In  In15      1.0  0.25080  0.75040  0.00031  1.0000
  In  In16      1.0  0.75076  0.75037  0.00032  1.0000
  In  In17      1.0  0.27116  0.21881  0.75035  1.0000
  In  In18      1.0  0.77117  0.21884  0.75034  1.0000
  In  In19      1.0  0.27123  0.71882  0.75035  1.0000
  In  In20      1.0  0.52123  0.46887  0.25032  1.0000
  In  In21      1.0  0.77118  0.71885  0.75036  1.0000
  In  In22      1.0  0.02118  0.46887  0.25032  1.0000
  In  In23      1.0  0.52114  0.96885  0.25033  1.0000
  In  In24      1.0  0.02120  0.96885  0.25036  1.0000
  In  In25      1.0  0.02115  0.03194  0.75035  1.0000
  In  In26      1.0  0.52120  0.03192  0.75032  1.0000
  In  In27      1.0  0.02120  0.53193  0.75037  1.0000
  In  In28      1.0  0.27120  0.28196  0.25034  1.0000
  In  In29      1.0  0.52124  0.53192  0.75035  1.0000
  In  In30      1.0  0.77118  0.28195  0.25033  1.0000
  In  In31      1.0  0.27115  0.78194  0.25032  1.0000
  In  In32      1.0  0.77121  0.78194  0.25032  1.0000
  O   O1        1.0  0.95011  0.30937  0.25035  1.0000
  O   O2        1.0  0.45011  0.30940  0.25033  1.0000
  O   O3        1.0  0.95011  0.80936  0.25036  1.0000
  O   O4        1.0  0.20011  0.55937  0.75033  1.0000
  O   O5        1.0  0.45006  0.80938  0.25037  1.0000
  O   O6        1.0  0.70013  0.55935  0.75034  1.0000
  O   O7        1.0  0.20004  0.05936  0.75032  1.0000
  O   O8        1.0  0.70010  0.05935  0.75033  1.0000
  O   O9        1.0  0.20009  0.94142  0.25038  1.0000
  O   O10       1.0  0.70004  0.94141  0.25034  1.0000
  O   O11       1.0  0.20008  0.44144  0.25036  1.0000
  O   O12       1.0  0.45011  0.19142  0.75035  1.0000
  O   O13       1.0  0.70016  0.44147  0.25034  1.0000
  O   O14       1.0  0.95009  0.19143  0.75033  1.0000
  O   O15       1.0  0.45014  0.69140  0.75034  1.0000
  O   O16       1.0  0.95010  0.69142  0.75032  1.0000
  O   O17       1.0  0.97896  0.03968  0.36195  1.0000
  O   O18       1.0  0.47898  0.03969  0.36191  1.0000
  O   O19       1.0  0.97897  0.53962  0.36196  1.0000
  O   O20       1.0  0.22899  0.28963  0.86193  1.0000
  O   O21       1.0  0.47899  0.53965  0.36192  1.0000
  O   O22       1.0  0.72900  0.28958  0.86197  1.0000
  O   O23       1.0  0.22902  0.78966  0.86192  1.0000
  O   O24       1.0  0.72895  0.78968  0.86194  1.0000
  O   O25       1.0  0.22903  0.21114  0.13874  1.0000
  O   O26       1.0  0.72890  0.21113  0.13877  1.0000
  O   O27       1.0  0.22894  0.71120  0.13870  1.0000
  O   O28       1.0  0.47903  0.46114  0.63873  1.0000
  O   O29       1.0  0.72903  0.71115  0.13872  1.0000
  O   O30       1.0  0.97896  0.46109  0.63879  1.0000
  O   O31       1.0  0.47895  0.96111  0.63872  1.0000
  O   O32       1.0  0.97897  0.96107  0.63877  1.0000
  O   O33       1.0  0.22892  0.21117  0.36193  1.0000
  O   O34       1.0  0.72905  0.21119  0.36198  1.0000
  O   O35       1.0  0.22890  0.71109  0.36191  1.0000
  O   O36       1.0  0.47897  0.46112  0.86193  1.0000
  O   O37       1.0  0.72903  0.71110  0.36193  1.0000
  O   O38       1.0  0.97901  0.46110  0.86196  1.0000
  O   O39       1.0  0.47904  0.96114  0.86195  1.0000
  O   O40       1.0  0.97891  0.96117  0.86194  1.0000
  O   O41       1.0  0.97904  0.03965  0.13875  1.0000
  O   O42       1.0  0.47889  0.03965  0.13874  1.0000
  O   O43       1.0  0.97899  0.53970  0.13874  1.0000
  O   O44       1.0  0.22905  0.28964  0.63873  1.0000
  O   O45       1.0  0.47899  0.53967  0.13873  1.0000
  O   O46       1.0  0.72887  0.28964  0.63876  1.0000
  O   O47       1.0  0.22907  0.78964  0.63874  1.0000
  O   O48       1.0  0.72891  0.78963  0.63876  1.0000
  O   O49       1.0  0.87788  0.12845  0.51668  1.0000
  O   O50       1.0  0.37788  0.12839  0.51657  1.0000
  O   O51       1.0  0.87785  0.62848  0.51668  1.0000
  O   O52       1.0  0.12789  0.37843  0.01665  1.0000
  O   O53       1.0  0.37789  0.62844  0.51658  1.0000
  O   O54       1.0  0.62792  0.37848  0.01663  1.0000
  O   O55       1.0  0.12786  0.87845  0.01656  1.0000
  O   O56       1.0  0.62786  0.87848  0.01663  1.0000
  O   O57       1.0  0.12786  0.12234  0.98408  1.0000
  O   O58       1.0  0.62782  0.12238  0.98408  1.0000
  O   O59       1.0  0.12786  0.62237  0.98401  1.0000
  O   O60       1.0  0.37786  0.37234  0.48404  1.0000
  O   O61       1.0  0.62785  0.62234  0.98400  1.0000
  O   O62       1.0  0.87785  0.37234  0.48411  1.0000
  O   O63       1.0  0.37784  0.87233  0.48398  1.0000
  O   O64       1.0  0.87780  0.87232  0.48406  1.0000
  O   O65       1.0  0.12785  0.87841  0.48405  1.0000
  O   O66       1.0  0.62781  0.87838  0.48404  1.0000
  O   O67       1.0  0.12785  0.37844  0.48409  1.0000
  O   O68       1.0  0.37784  0.12845  0.98401  1.0000
  O   O69       1.0  0.62788  0.37843  0.48403  1.0000
  O   O70       1.0  0.87782  0.12839  0.98410  1.0000
  O   O71       1.0  0.37792  0.62849  0.98403  1.0000
  O   O72       1.0  0.87791  0.62843  0.98403  1.0000
  O   O73       1.0  0.12785  0.12233  0.51661  1.0000
  O   O74       1.0  0.62787  0.12226  0.51661  1.0000
  O   O75       1.0  0.12788  0.62232  0.51665  1.0000
  O   O76       1.0  0.37790  0.37234  0.01662  1.0000
  O   O77       1.0  0.62786  0.62230  0.51659  1.0000
  O   O78       1.0  0.87789  0.37234  0.01668  1.0000
  O   O79       1.0  0.37785  0.87237  0.01662  1.0000
  O   O80       1.0  0.87781  0.87234  0.01663  1.0000
