data_image0
_chemical_formula_structural       Hf12Al24O60
_chemical_formula_sum              "Hf12 Al24 O60"
_cell_length_a       10.178
_cell_length_b       10.2548
_cell_length_c       10.1514
_cell_angle_alpha    90
_cell_angle_beta     90
_cell_angle_gamma    96.7409

_space_group_name_H-M_alt    "P 1"
_space_group_IT_number       1

loop_
  _space_group_symop_operation_xyz
  'x, y, z'

loop_
  _atom_site_type_symbol
  _atom_site_label
  _atom_site_symmetry_multiplicity
  _atom_site_fract_x
  _atom_site_fract_y
  _atom_site_fract_z
  _atom_site_occupancy
  Hf  Hf1       1.0  0.34370  0.06326  0.25051  1.0000
  Hf  Hf2       1.0  0.84362  0.06328  0.25049  1.0000
  Hf  Hf3       1.0  0.51041  0.39660  0.25052  1.0000
  Hf  Hf4       1.0  0.01029  0.39664  0.25055  1.0000
  Hf  Hf5       1.0  0.67695  0.72998  0.25045  1.0000
  Hf  Hf6       1.0  0.17688  0.73000  0.25050  1.0000
  Hf  Hf7       1.0  0.82428  0.27109  0.75050  1.0000
  Hf  Hf8       1.0  0.32410  0.27099  0.75044  1.0000
  Hf  Hf9       1.0  0.99084  0.60439  0.75038  1.0000
  Hf  Hf10      1.0  0.49075  0.60425  0.75043  1.0000
  Hf  Hf11      1.0  0.15752  0.93757  0.75032  1.0000
  Hf  Hf12      1.0  0.65751  0.93768  0.75041  1.0000
  Al  Al1       1.0  0.38656  0.04617  0.95163  1.0000
  Al  Al2       1.0  0.88672  0.04604  0.95167  1.0000
  Al  Al3       1.0  0.55336  0.37937  0.95183  1.0000
  Al  Al4       1.0  0.05334  0.37948  0.95180  1.0000
  Al  Al5       1.0  0.71990  0.71281  0.95173  1.0000
  Al  Al6       1.0  0.22008  0.71280  0.95185  1.0000
  Al  Al7       1.0  0.78132  0.28818  0.04922  1.0000
  Al  Al8       1.0  0.28123  0.28820  0.04921  1.0000
  Al  Al9       1.0  0.94787  0.62150  0.04909  1.0000
  Al  Al10      1.0  0.44796  0.62140  0.04926  1.0000
  Al  Al11      1.0  0.11462  0.95491  0.04920  1.0000
  Al  Al12      1.0  0.61452  0.95497  0.04902  1.0000
  Al  Al13      1.0  0.38656  0.04611  0.54925  1.0000
  Al  Al14      1.0  0.88653  0.04611  0.54929  1.0000
  Al  Al15      1.0  0.55332  0.37945  0.54930  1.0000
  Al  Al16      1.0  0.05325  0.37950  0.54926  1.0000
  Al  Al17      1.0  0.71980  0.71273  0.54923  1.0000
  Al  Al18      1.0  0.21984  0.71281  0.54923  1.0000
  Al  Al19      1.0  0.78127  0.28818  0.45177  1.0000
  Al  Al20      1.0  0.28123  0.28821  0.45173  1.0000
  Al  Al21      1.0  0.94780  0.62152  0.45166  1.0000
  Al  Al22      1.0  0.44778  0.62149  0.45169  1.0000
  Al  Al23      1.0  0.11453  0.95490  0.45157  1.0000
  Al  Al24      1.0  0.61454  0.95485  0.45182  1.0000
  O   O1        1.0  0.24208  0.10394  0.06283  1.0000
  O   O2        1.0  0.74213  0.10389  0.06278  1.0000
  O   O3        1.0  0.40888  0.43707  0.06273  1.0000
  O   O4        1.0  0.90890  0.43716  0.06270  1.0000
  O   O5        1.0  0.57552  0.77064  0.06261  1.0000
  O   O6        1.0  0.07553  0.77053  0.06271  1.0000
  O   O7        1.0  0.92582  0.23040  0.93823  1.0000
  O   O8        1.0  0.42575  0.23043  0.93800  1.0000
  O   O9        1.0  0.09244  0.56384  0.93810  1.0000
  O   O10       1.0  0.59241  0.56373  0.93815  1.0000
  O   O11       1.0  0.25911  0.89713  0.93810  1.0000
  O   O12       1.0  0.75910  0.89720  0.93803  1.0000
  O   O13       1.0  0.92577  0.23050  0.56276  1.0000
  O   O14       1.0  0.42576  0.23040  0.56280  1.0000
  O   O15       1.0  0.09230  0.56380  0.56270  1.0000
  O   O16       1.0  0.59235  0.56378  0.56270  1.0000
  O   O17       1.0  0.25907  0.89711  0.56265  1.0000
  O   O18       1.0  0.75902  0.89704  0.56281  1.0000
  O   O19       1.0  0.24208  0.10388  0.43816  1.0000
  O   O20       1.0  0.74209  0.10385  0.43831  1.0000
  O   O21       1.0  0.40876  0.43717  0.43812  1.0000
  O   O22       1.0  0.90869  0.43721  0.43815  1.0000
  O   O23       1.0  0.57534  0.77051  0.43820  1.0000
  O   O24       1.0  0.07537  0.77060  0.43807  1.0000
  O   O25       1.0  0.46655  0.01409  0.11338  1.0000
  O   O26       1.0  0.96653  0.01392  0.11346  1.0000
  O   O27       1.0  0.63338  0.34738  0.11356  1.0000
  O   O28       1.0  0.13347  0.34781  0.11359  1.0000
  O   O29       1.0  0.79992  0.68066  0.11349  1.0000
  O   O30       1.0  0.30004  0.68076  0.11360  1.0000
  O   O31       1.0  0.70133  0.32031  0.88749  1.0000
  O   O32       1.0  0.20115  0.32005  0.88754  1.0000
  O   O33       1.0  0.86791  0.65370  0.88736  1.0000
  O   O34       1.0  0.36788  0.65341  0.88749  1.0000
  O   O35       1.0  0.03473  0.98706  0.88733  1.0000
  O   O36       1.0  0.53461  0.98716  0.88732  1.0000
  O   O37       1.0  0.85298  0.25951  0.25064  1.0000
  O   O38       1.0  0.35326  0.25943  0.25054  1.0000
  O   O39       1.0  0.01962  0.59282  0.25058  1.0000
  O   O40       1.0  0.51972  0.59283  0.25033  1.0000
  O   O41       1.0  0.18626  0.92624  0.25048  1.0000
  O   O42       1.0  0.68644  0.92617  0.25066  1.0000
  O   O43       1.0  0.31470  0.07482  0.75031  1.0000
  O   O44       1.0  0.81476  0.07493  0.75030  1.0000
  O   O45       1.0  0.48140  0.40811  0.75021  1.0000
  O   O46       1.0  0.98153  0.40823  0.75055  1.0000
  O   O47       1.0  0.64799  0.74148  0.75049  1.0000
  O   O48       1.0  0.14825  0.74141  0.75015  1.0000
  O   O49       1.0  0.46666  0.01420  0.38747  1.0000
  O   O50       1.0  0.96662  0.01421  0.38742  1.0000
  O   O51       1.0  0.63326  0.34736  0.38754  1.0000
  O   O52       1.0  0.13338  0.34773  0.38750  1.0000
  O   O53       1.0  0.79991  0.68089  0.38743  1.0000
  O   O54       1.0  0.29989  0.68087  0.38743  1.0000
  O   O55       1.0  0.70133  0.32035  0.61357  1.0000
  O   O56       1.0  0.20111  0.32008  0.61349  1.0000
  O   O57       1.0  0.86770  0.65337  0.61345  1.0000
  O   O58       1.0  0.36778  0.65332  0.61342  1.0000
  O   O59       1.0  0.03445  0.98670  0.61342  1.0000
  O   O60       1.0  0.53441  0.98672  0.61352  1.0000
