data_image0
_chemical_formula_structural       In32O48
_chemical_formula_sum              "In32 O48"
_cell_length_a       8.80777
_cell_length_b       14.3845
_cell_length_c       8.80847
_cell_angle_alpha    90.004
_cell_angle_beta     109.465
_cell_angle_gamma    89.9985

_space_group_name_H-M_alt    "P 1"
_space_group_IT_number       1

loop_
  _space_group_symop_operation_xyz
  'x, y, z'

loop_
  _atom_site_type_symbol
  _atom_site_label
  _atom_site_symmetry_multiplicity
  _atom_site_fract_x
  _atom_site_fract_y
  _atom_site_fract_z
  _atom_site_occupancy
  In  In1       1.0  0.60892  0.14227  0.39244  1.0000
  In  In2       1.0  0.10889  0.64215  0.89252  1.0000
  In  In3       1.0  0.89255  0.35847  0.10879  1.0000
  In  In4       1.0  0.39280  0.85852  0.60872  1.0000
  In  In5       1.0  0.00076  0.00031  0.50051  1.0000
  In  In6       1.0  0.50072  0.50041  0.00067  1.0000
  In  In7       1.0  0.00080  0.50034  0.50079  1.0000
  In  In8       1.0  0.50077  0.00041  0.00056  1.0000
  In  In9       1.0  0.15951  0.37530  0.90936  1.0000
  In  In10      1.0  0.65961  0.87531  0.40926  1.0000
  In  In11      1.0  0.34199  0.12537  0.59185  1.0000
  In  In12      1.0  0.84206  0.62532  0.09201  1.0000
  In  In13      1.0  0.35893  0.39219  0.64250  1.0000
  In  In14      1.0  0.85897  0.89218  0.14234  1.0000
  In  In15      1.0  0.14264  0.10849  0.85860  1.0000
  In  In16      1.0  0.64268  0.60845  0.35887  1.0000
  In  In17      1.0  0.01760  0.26721  0.48373  1.0000
  In  In18      1.0  0.51765  0.76723  0.98377  1.0000
  In  In19      1.0  0.65936  0.37538  0.40933  1.0000
  In  In20      1.0  0.15945  0.87534  0.90923  1.0000
  In  In21      1.0  0.75085  0.25031  0.75066  1.0000
  In  In22      1.0  0.25092  0.75035  0.25058  1.0000
  In  In23      1.0  0.25067  0.25026  0.25053  1.0000
  In  In24      1.0  0.75080  0.75027  0.75058  1.0000
  In  In25      1.0  0.84208  0.12531  0.09189  1.0000
  In  In26      1.0  0.34217  0.62534  0.59192  1.0000
  In  In27      1.0  0.48391  0.23356  0.01748  1.0000
  In  In28      1.0  0.98407  0.73348  0.51753  1.0000
  In  In29      1.0  0.73398  0.48344  0.76763  1.0000
  In  In30      1.0  0.23401  0.98352  0.26748  1.0000
  In  In31      1.0  0.76758  0.01722  0.73364  1.0000
  In  In32      1.0  0.26747  0.51712  0.23376  1.0000
  O   O1        1.0  0.27706  0.26871  0.50437  1.0000
  O   O2        1.0  0.77721  0.76864  0.00453  1.0000
  O   O3        1.0  0.15124  0.38636  0.15926  1.0000
  O   O4        1.0  0.65149  0.88644  0.65917  1.0000
  O   O5        1.0  0.71012  0.25434  0.98219  1.0000
  O   O6        1.0  0.21024  0.75439  0.48218  1.0000
  O   O7        1.0  0.87901  0.38665  0.34222  1.0000
  O   O8        1.0  0.37899  0.88666  0.84206  1.0000
  O   O9        1.0  0.35025  0.11423  0.34202  1.0000
  O   O10       1.0  0.85019  0.61420  0.84211  1.0000
  O   O11       1.0  0.90926  0.13653  0.87236  1.0000
  O   O12       1.0  0.40916  0.63653  0.37226  1.0000
  O   O13       1.0  0.00076  0.22793  0.23635  1.0000
  O   O14       1.0  0.50095  0.72801  0.73635  1.0000
  O   O15       1.0  0.51507  0.47802  0.25054  1.0000
  O   O16       1.0  0.01508  0.97796  0.75038  1.0000
  O   O17       1.0  0.90526  0.36809  0.86035  1.0000
  O   O18       1.0  0.40536  0.86809  0.36028  1.0000
  O   O19       1.0  0.75468  0.48200  0.02713  1.0000
  O   O20       1.0  0.25474  0.98202  0.52694  1.0000
  O   O21       1.0  0.39104  0.11823  0.84608  1.0000
  O   O22       1.0  0.89112  0.61807  0.34631  1.0000
  O   O23       1.0  0.98643  0.02265  0.25063  1.0000
  O   O24       1.0  0.48648  0.52274  0.75082  1.0000
  O   O25       1.0  0.74684  0.01873  0.47408  1.0000
  O   O26       1.0  0.24676  0.51861  0.97425  1.0000
  O   O27       1.0  0.59226  0.36408  0.62890  1.0000
  O   O28       1.0  0.09240  0.86412  0.12883  1.0000
  O   O29       1.0  0.09206  0.13646  0.59994  1.0000
  O   O30       1.0  0.59221  0.63652  0.10022  1.0000
  O   O31       1.0  0.23234  0.49626  0.45996  1.0000
  O   O32       1.0  0.73233  0.99630  0.95982  1.0000
  O   O33       1.0  0.40948  0.36429  0.90127  1.0000
  O   O34       1.0  0.90941  0.86417  0.40113  1.0000
  O   O35       1.0  0.59627  0.13259  0.64080  1.0000
  O   O36       1.0  0.09631  0.63256  0.14090  1.0000
  O   O37       1.0  0.62250  0.11417  0.15904  1.0000
  O   O38       1.0  0.12275  0.61411  0.65921  1.0000
  O   O39       1.0  0.79144  0.24640  0.51909  1.0000
  O   O40       1.0  0.29141  0.74633  0.01892  1.0000
  O   O41       1.0  0.26913  0.00440  0.04122  1.0000
  O   O42       1.0  0.76919  0.50439  0.54147  1.0000
  O   O43       1.0  0.11059  0.38255  0.65518  1.0000
  O   O44       1.0  0.61057  0.88262  0.15500  1.0000
  O   O45       1.0  0.50055  0.27276  0.26494  1.0000
  O   O46       1.0  0.00069  0.77266  0.76492  1.0000
  O   O47       1.0  0.22441  0.23200  0.99661  1.0000
  O   O48       1.0  0.72439  0.73196  0.49674  1.0000
