data_image0
_chemical_formula_structural       Ba27In18O54
_chemical_formula_sum              "Ba27 In18 O54"
_cell_length_a       12.6367
_cell_length_b       12.6366
_cell_length_c       11.3108
_cell_angle_alpha    100.731
_cell_angle_beta     79.2686
_cell_angle_gamma    90

_space_group_name_H-M_alt    "P 1"
_space_group_IT_number       1

loop_
  _space_group_symop_operation_xyz
  'x, y, z'

loop_
  _atom_site_type_symbol
  _atom_site_label
  _atom_site_symmetry_multiplicity
  _atom_site_fract_x
  _atom_site_fract_y
  _atom_site_fract_z
  _atom_site_occupancy
  Ba  Ba1       1.0  0.77263  0.22811  0.36649  1.0000
  Ba  Ba2       1.0  0.10583  0.22814  0.36644  1.0000
  Ba  Ba3       1.0  0.43928  0.22796  0.36650  1.0000
  Ba  Ba4       1.0  0.77271  0.56151  0.36641  1.0000
  Ba  Ba5       1.0  0.10582  0.56140  0.36648  1.0000
  Ba  Ba6       1.0  0.43947  0.56138  0.36654  1.0000
  Ba  Ba7       1.0  0.77255  0.89478  0.36657  1.0000
  Ba  Ba8       1.0  0.10593  0.89471  0.36645  1.0000
  Ba  Ba9       1.0  0.43919  0.89467  0.36640  1.0000
  Ba  Ba10      1.0  0.89461  0.10638  0.63459  1.0000
  Ba  Ba11      1.0  0.22785  0.10606  0.63450  1.0000
  Ba  Ba12      1.0  0.56134  0.10620  0.63450  1.0000
  Ba  Ba13      1.0  0.89458  0.43965  0.63449  1.0000
  Ba  Ba14      1.0  0.22811  0.43938  0.63440  1.0000
  Ba  Ba15      1.0  0.56147  0.43954  0.63429  1.0000
  Ba  Ba16      1.0  0.89454  0.77293  0.63452  1.0000
  Ba  Ba17      1.0  0.22797  0.77260  0.63440  1.0000
  Ba  Ba18      1.0  0.56121  0.77285  0.63454  1.0000
  Ba  Ba19      1.0  0.83365  0.16712  0.00042  1.0000
  Ba  Ba20      1.0  0.16701  0.16718  0.00047  1.0000
  Ba  Ba21      1.0  0.50029  0.16706  0.00041  1.0000
  Ba  Ba22      1.0  0.83365  0.50035  0.00042  1.0000
  Ba  Ba23      1.0  0.16696  0.50055  0.00050  1.0000
  Ba  Ba24      1.0  0.50020  0.50049  0.00051  1.0000
  Ba  Ba25      1.0  0.83354  0.83384  0.00048  1.0000
  Ba  Ba26      1.0  0.16684  0.83395  0.00041  1.0000
  Ba  Ba27      1.0  0.50023  0.83377  0.00055  1.0000
  In  In1       1.0  0.70096  0.29985  0.79600  1.0000
  In  In2       1.0  0.03438  0.29973  0.79588  1.0000
  In  In3       1.0  0.36778  0.29973  0.79584  1.0000
  In  In4       1.0  0.70106  0.63307  0.79605  1.0000
  In  In5       1.0  0.03438  0.63307  0.79597  1.0000
  In  In6       1.0  0.36761  0.63307  0.79595  1.0000
  In  In7       1.0  0.70101  0.96636  0.79600  1.0000
  In  In8       1.0  0.03444  0.96634  0.79588  1.0000
  In  In9       1.0  0.36767  0.96631  0.79578  1.0000
  In  In10      1.0  0.96619  0.03449  0.20507  1.0000
  In  In11      1.0  0.29948  0.03454  0.20497  1.0000
  In  In12      1.0  0.63285  0.03455  0.20503  1.0000
  In  In13      1.0  0.96627  0.36774  0.20491  1.0000
  In  In14      1.0  0.29960  0.36784  0.20498  1.0000
  In  In15      1.0  0.63289  0.36784  0.20496  1.0000
  In  In16      1.0  0.96603  0.70125  0.20496  1.0000
  In  In17      1.0  0.29956  0.70113  0.20505  1.0000
  In  In18      1.0  0.63298  0.70127  0.20496  1.0000
  O   O1        1.0  0.73284  0.26794  0.60477  1.0000
  O   O2        1.0  0.06610  0.26754  0.60468  1.0000
  O   O3        1.0  0.39972  0.26799  0.60464  1.0000
  O   O4        1.0  0.73309  0.60094  0.60479  1.0000
  O   O5        1.0  0.06637  0.60112  0.60478  1.0000
  O   O6        1.0  0.39963  0.60125  0.60474  1.0000
  O   O7        1.0  0.73279  0.93442  0.60480  1.0000
  O   O8        1.0  0.06626  0.93425  0.60471  1.0000
  O   O9        1.0  0.39979  0.93434  0.60456  1.0000
  O   O10       1.0  0.93440  0.06634  0.39630  1.0000
  O   O11       1.0  0.26757  0.06635  0.39618  1.0000
  O   O12       1.0  0.60122  0.06656  0.39624  1.0000
  O   O13       1.0  0.93450  0.39976  0.39615  1.0000
  O   O14       1.0  0.26764  0.39963  0.39619  1.0000
  O   O15       1.0  0.60095  0.39985  0.39621  1.0000
  O   O16       1.0  0.93422  0.73325  0.39621  1.0000
  O   O17       1.0  0.26794  0.73307  0.39627  1.0000
  O   O18       1.0  0.60133  0.73304  0.39617  1.0000
  O   O19       1.0  0.02831  0.13910  0.83233  1.0000
  O   O20       1.0  0.36172  0.13897  0.83192  1.0000
  O   O21       1.0  0.69508  0.13917  0.83226  1.0000
  O   O22       1.0  0.02842  0.47242  0.83216  1.0000
  O   O23       1.0  0.36147  0.47251  0.83237  1.0000
  O   O24       1.0  0.69481  0.47250  0.83250  1.0000
  O   O25       1.0  0.02811  0.80577  0.83234  1.0000
  O   O26       1.0  0.36159  0.80576  0.83214  1.0000
  O   O27       1.0  0.69493  0.80576  0.83233  1.0000
  O   O28       1.0  0.86166  0.30583  0.83228  1.0000
  O   O29       1.0  0.19504  0.30575  0.83200  1.0000
  O   O30       1.0  0.52825  0.30568  0.83234  1.0000
  O   O31       1.0  0.86168  0.63898  0.83243  1.0000
  O   O32       1.0  0.19491  0.63934  0.83255  1.0000
  O   O33       1.0  0.52822  0.63906  0.83236  1.0000
  O   O34       1.0  0.86173  0.97242  0.83214  1.0000
  O   O35       1.0  0.19502  0.97255  0.83221  1.0000
  O   O36       1.0  0.52820  0.97237  0.83249  1.0000
  O   O37       1.0  0.97229  0.19508  0.16868  1.0000
  O   O38       1.0  0.30577  0.19514  0.16862  1.0000
  O   O39       1.0  0.63893  0.19512  0.16872  1.0000
  O   O40       1.0  0.97233  0.52845  0.16870  1.0000
  O   O41       1.0  0.30545  0.52845  0.16871  1.0000
  O   O42       1.0  0.63900  0.52854  0.16879  1.0000
  O   O43       1.0  0.97209  0.86183  0.16868  1.0000
  O   O44       1.0  0.30561  0.86183  0.16873  1.0000
  O   O45       1.0  0.63887  0.86184  0.16859  1.0000
  O   O46       1.0  0.13891  0.02854  0.16856  1.0000
  O   O47       1.0  0.47224  0.02847  0.16865  1.0000
  O   O48       1.0  0.80558  0.02859  0.16869  1.0000
  O   O49       1.0  0.13903  0.36183  0.16849  1.0000
  O   O50       1.0  0.47229  0.36194  0.16850  1.0000
  O   O51       1.0  0.80568  0.36170  0.16864  1.0000
  O   O52       1.0  0.13879  0.69537  0.16888  1.0000
  O   O53       1.0  0.47232  0.69509  0.16871  1.0000
  O   O54       1.0  0.80564  0.69495  0.16836  1.0000
