data_image0
_chemical_formula_structural       In24Si24O84
_chemical_formula_sum              "In24 Si24 O84"
_cell_length_a       14.1561
_cell_length_b       10.8701
_cell_length_c       10.9051
_cell_angle_alpha    75.8347
_cell_angle_beta     97.7747
_cell_angle_gamma    101.746

_space_group_name_H-M_alt    "P 1"
_space_group_IT_number       1

loop_
  _space_group_symop_operation_xyz
  'x, y, z'

loop_
  _atom_site_type_symbol
  _atom_site_label
  _atom_site_symmetry_multiplicity
  _atom_site_fract_x
  _atom_site_fract_y
  _atom_site_fract_z
  _atom_site_occupancy
  In  In1       1.0  0.00046  0.15436  0.26954  1.0000
  In  In2       1.0  0.00033  0.15413  0.76956  1.0000
  In  In3       1.0  0.00038  0.65426  0.51955  1.0000
  In  In4       1.0  0.00033  0.65419  0.01968  1.0000
  In  In5       1.0  0.33362  0.15431  0.26950  1.0000
  In  In6       1.0  0.33373  0.15418  0.76952  1.0000
  In  In7       1.0  0.33364  0.65431  0.51942  1.0000
  In  In8       1.0  0.33377  0.65438  0.01958  1.0000
  In  In9       1.0  0.66707  0.15426  0.26958  1.0000
  In  In10      1.0  0.66716  0.15440  0.76954  1.0000
  In  In11      1.0  0.66717  0.65425  0.51947  1.0000
  In  In12      1.0  0.66711  0.65432  0.01956  1.0000
  In  In13      1.0  0.00039  0.34641  0.98126  1.0000
  In  In14      1.0  0.00051  0.34636  0.48135  1.0000
  In  In15      1.0  0.00049  0.84656  0.23129  1.0000
  In  In16      1.0  0.00041  0.84623  0.73134  1.0000
  In  In17      1.0  0.33381  0.34656  0.98122  1.0000
  In  In18      1.0  0.33373  0.34633  0.48127  1.0000
  In  In19      1.0  0.33373  0.84655  0.23125  1.0000
  In  In20      1.0  0.33378  0.84633  0.73129  1.0000
  In  In21      1.0  0.66708  0.34651  0.98137  1.0000
  In  In22      1.0  0.66712  0.34644  0.48125  1.0000
  In  In23      1.0  0.66718  0.84651  0.23118  1.0000
  In  In24      1.0  0.66703  0.84638  0.73131  1.0000
  Si  Si1       1.0  0.13722  0.11051  0.05532  1.0000
  Si  Si2       1.0  0.13710  0.11034  0.55556  1.0000
  Si  Si3       1.0  0.13715  0.61037  0.30542  1.0000
  Si  Si4       1.0  0.13722  0.61035  0.80554  1.0000
  Si  Si5       1.0  0.47052  0.11062  0.05547  1.0000
  Si  Si6       1.0  0.47061  0.11036  0.55546  1.0000
  Si  Si7       1.0  0.47051  0.61061  0.30549  1.0000
  Si  Si8       1.0  0.47047  0.61036  0.80538  1.0000
  Si  Si9       1.0  0.80388  0.11060  0.05535  1.0000
  Si  Si10      1.0  0.80384  0.11052  0.55547  1.0000
  Si  Si11      1.0  0.80395  0.61056  0.30537  1.0000
  Si  Si12      1.0  0.80386  0.61047  0.80541  1.0000
  Si  Si13      1.0  0.19703  0.39021  0.19532  1.0000
  Si  Si14      1.0  0.19703  0.39013  0.69541  1.0000
  Si  Si15      1.0  0.19691  0.89020  0.44534  1.0000
  Si  Si16      1.0  0.19697  0.89021  0.94527  1.0000
  Si  Si17      1.0  0.53029  0.39033  0.19544  1.0000
  Si  Si18      1.0  0.53031  0.39012  0.69531  1.0000
  Si  Si19      1.0  0.53043  0.89013  0.44534  1.0000
  Si  Si20      1.0  0.53037  0.89038  0.94540  1.0000
  Si  Si21      1.0  0.86366  0.39021  0.19536  1.0000
  Si  Si22      1.0  0.86374  0.39030  0.69530  1.0000
  Si  Si23      1.0  0.86371  0.89033  0.44538  1.0000
  Si  Si24      1.0  0.86365  0.89031  0.94529  1.0000
  O   O1        1.0  0.26109  0.46106  0.07483  1.0000
  O   O2        1.0  0.26101  0.46084  0.57479  1.0000
  O   O3        1.0  0.26090  0.96092  0.32472  1.0000
  O   O4        1.0  0.26091  0.96083  0.82456  1.0000
  O   O5        1.0  0.59433  0.46111  0.07487  1.0000
  O   O6        1.0  0.59435  0.46094  0.57475  1.0000
  O   O7        1.0  0.59440  0.96093  0.32470  1.0000
  O   O8        1.0  0.59445  0.96102  0.82485  1.0000
  O   O9        1.0  0.92753  0.46085  0.07460  1.0000
  O   O10       1.0  0.92784  0.46095  0.57482  1.0000
  O   O11       1.0  0.92784  0.96100  0.32486  1.0000
  O   O12       1.0  0.92761  0.96088  0.82463  1.0000
  O   O13       1.0  0.07307  0.19560  0.94208  1.0000
  O   O14       1.0  0.07298  0.19553  0.44235  1.0000
  O   O15       1.0  0.07321  0.69569  0.19212  1.0000
  O   O16       1.0  0.07313  0.69548  0.69217  1.0000
  O   O17       1.0  0.40649  0.19571  0.94204  1.0000
  O   O18       1.0  0.40662  0.19556  0.44205  1.0000
  O   O19       1.0  0.40656  0.69593  0.19214  1.0000
  O   O20       1.0  0.40646  0.69560  0.69204  1.0000
  O   O21       1.0  0.73995  0.19599  0.94208  1.0000
  O   O22       1.0  0.73992  0.19583  0.44210  1.0000
  O   O23       1.0  0.73996  0.69587  0.19209  1.0000
  O   O24       1.0  0.73989  0.69576  0.69206  1.0000
  O   O25       1.0  0.07332  0.03980  0.17602  1.0000
  O   O26       1.0  0.07319  0.03957  0.67620  1.0000
  O   O27       1.0  0.07320  0.53969  0.42602  1.0000
  O   O28       1.0  0.07315  0.53967  0.92611  1.0000
  O   O29       1.0  0.40646  0.03989  0.17602  1.0000
  O   O30       1.0  0.40662  0.03965  0.67609  1.0000
  O   O31       1.0  0.40644  0.53981  0.42602  1.0000
  O   O32       1.0  0.40649  0.53990  0.92605  1.0000
  O   O33       1.0  0.73983  0.03982  0.17586  1.0000
  O   O34       1.0  0.73981  0.03969  0.67599  1.0000
  O   O35       1.0  0.73995  0.53972  0.42595  1.0000
  O   O36       1.0  0.73978  0.53977  0.92595  1.0000
  O   O37       1.0  0.26099  0.30489  0.30870  1.0000
  O   O38       1.0  0.26110  0.30492  0.80867  1.0000
  O   O39       1.0  0.26095  0.80500  0.55867  1.0000
  O   O40       1.0  0.26103  0.80506  0.05865  1.0000
  O   O41       1.0  0.59435  0.30506  0.30869  1.0000
  O   O42       1.0  0.59433  0.30502  0.80875  1.0000
  O   O43       1.0  0.59445  0.80486  0.55863  1.0000
  O   O44       1.0  0.59438  0.80500  0.05863  1.0000
  O   O45       1.0  0.92770  0.30500  0.30869  1.0000
  O   O46       1.0  0.92769  0.30506  0.80863  1.0000
  O   O47       1.0  0.92759  0.80491  0.55878  1.0000
  O   O48       1.0  0.92772  0.80521  0.05868  1.0000
  O   O49       1.0  0.16723  0.00049  0.00023  1.0000
  O   O50       1.0  0.16690  0.00034  0.50023  1.0000
  O   O51       1.0  0.16710  0.50018  0.25054  1.0000
  O   O52       1.0  0.16727  0.50025  0.75061  1.0000
  O   O53       1.0  0.50059  0.00045  0.00062  1.0000
  O   O54       1.0  0.50074  0.00023  0.50062  1.0000
  O   O55       1.0  0.50028  0.50037  0.25048  1.0000
  O   O56       1.0  0.50019  0.50004  0.75045  1.0000
  O   O57       1.0  0.83379  0.00065  0.00006  1.0000
  O   O58       1.0  0.83383  0.00057  0.50025  1.0000
  O   O59       1.0  0.83394  0.50060  0.25018  1.0000
  O   O60       1.0  0.83383  0.50046  0.75029  1.0000
  O   O61       1.0  0.09466  0.30521  0.15285  1.0000
  O   O62       1.0  0.09466  0.30513  0.65300  1.0000
  O   O63       1.0  0.09454  0.80520  0.40293  1.0000
  O   O64       1.0  0.09457  0.80520  0.90295  1.0000
  O   O65       1.0  0.42796  0.30533  0.15285  1.0000
  O   O66       1.0  0.42800  0.30502  0.65277  1.0000
  O   O67       1.0  0.42798  0.80532  0.40281  1.0000
  O   O68       1.0  0.42799  0.80546  0.90290  1.0000
  O   O69       1.0  0.76121  0.30531  0.15304  1.0000
  O   O70       1.0  0.76133  0.30539  0.65285  1.0000
  O   O71       1.0  0.76137  0.80539  0.40277  1.0000
  O   O72       1.0  0.76130  0.80522  0.90291  1.0000
  O   O73       1.0  0.23955  0.19563  0.09773  1.0000
  O   O74       1.0  0.23954  0.19528  0.59791  1.0000
  O   O75       1.0  0.23948  0.69545  0.34785  1.0000
  O   O76       1.0  0.23958  0.69542  0.84798  1.0000
  O   O77       1.0  0.57288  0.19559  0.09802  1.0000
  O   O78       1.0  0.57296  0.19544  0.59790  1.0000
  O   O79       1.0  0.57299  0.69543  0.34789  1.0000
  O   O80       1.0  0.57287  0.69528  0.84789  1.0000
  O   O81       1.0  0.90625  0.19546  0.09795  1.0000
  O   O82       1.0  0.90619  0.19546  0.59805  1.0000
  O   O83       1.0  0.90631  0.69547  0.34792  1.0000
  O   O84       1.0  0.90625  0.69533  0.84804  1.0000
