data_image0
_chemical_formula_structural       Ca16In32O64
_chemical_formula_sum              "Ca16 In32 O64"
_cell_length_a       11.3802
_cell_length_b       11.3803
_cell_length_c       13.161
_cell_angle_alpha    106.592
_cell_angle_beta     89.9925
_cell_angle_gamma    80.3304

_space_group_name_H-M_alt    "P 1"
_space_group_IT_number       1

loop_
  _space_group_symop_operation_xyz
  'x, y, z'

loop_
  _atom_site_type_symbol
  _atom_site_label
  _atom_site_symmetry_multiplicity
  _atom_site_fract_x
  _atom_site_fract_y
  _atom_site_fract_z
  _atom_site_occupancy
  Ca  Ca1       1.0  0.03160  0.31322  0.20360  1.0000
  Ca  Ca2       1.0  0.03155  0.31313  0.70372  1.0000
  Ca  Ca3       1.0  0.53164  0.31306  0.45372  1.0000
  Ca  Ca4       1.0  0.53170  0.31310  0.95368  1.0000
  Ca  Ca5       1.0  0.28144  0.81316  0.32877  1.0000
  Ca  Ca6       1.0  0.28157  0.81310  0.82877  1.0000
  Ca  Ca7       1.0  0.78151  0.81312  0.57878  1.0000
  Ca  Ca8       1.0  0.78153  0.81323  0.07883  1.0000
  Ca  Ca9       1.0  0.21915  0.18808  0.92207  1.0000
  Ca  Ca10      1.0  0.21914  0.18807  0.42203  1.0000
  Ca  Ca11      1.0  0.71924  0.18807  0.17207  1.0000
  Ca  Ca12      1.0  0.71899  0.18802  0.67199  1.0000
  Ca  Ca13      1.0  0.46908  0.68809  0.04711  1.0000
  Ca  Ca14      1.0  0.46907  0.68797  0.54706  1.0000
  Ca  Ca15      1.0  0.96902  0.68799  0.29723  1.0000
  Ca  Ca16      1.0  0.96915  0.68807  0.79717  1.0000
  In  In1       1.0  0.25036  0.00072  0.12537  1.0000
  In  In2       1.0  0.25027  0.00060  0.62541  1.0000
  In  In3       1.0  0.75039  0.00055  0.37543  1.0000
  In  In4       1.0  0.75031  0.00066  0.87542  1.0000
  In  In5       1.0  0.50037  0.50057  0.25039  1.0000
  In  In6       1.0  0.50038  0.50058  0.75047  1.0000
  In  In7       1.0  0.00041  0.50058  0.50044  1.0000
  In  In8       1.0  0.00029  0.50083  0.00050  1.0000
  In  In9       1.0  0.00030  0.00064  0.00041  1.0000
  In  In10      1.0  0.00031  0.00060  0.50045  1.0000
  In  In11      1.0  0.50033  0.00062  0.25043  1.0000
  In  In12      1.0  0.50027  0.00057  0.75039  1.0000
  In  In13      1.0  0.25034  0.50057  0.12540  1.0000
  In  In14      1.0  0.25042  0.50058  0.62542  1.0000
  In  In15      1.0  0.75035  0.50064  0.37541  1.0000
  In  In16      1.0  0.75037  0.50071  0.87536  1.0000
  In  In17      1.0  0.00037  0.00066  0.25043  1.0000
  In  In18      1.0  0.00030  0.00065  0.75045  1.0000
  In  In19      1.0  0.50029  0.00051  0.50038  1.0000
  In  In20      1.0  0.50038  0.00064  0.00045  1.0000
  In  In21      1.0  0.25041  0.50065  0.37541  1.0000
  In  In22      1.0  0.25034  0.50060  0.87543  1.0000
  In  In23      1.0  0.75031  0.50064  0.62538  1.0000
  In  In24      1.0  0.75030  0.50065  0.12536  1.0000
  In  In25      1.0  0.87540  0.25071  0.93784  1.0000
  In  In26      1.0  0.87542  0.25065  0.43788  1.0000
  In  In27      1.0  0.37550  0.25062  0.18792  1.0000
  In  In28      1.0  0.37530  0.25058  0.68788  1.0000
  In  In29      1.0  0.12536  0.75070  0.06304  1.0000
  In  In30      1.0  0.12529  0.75060  0.56302  1.0000
  In  In31      1.0  0.62522  0.75060  0.31292  1.0000
  In  In32      1.0  0.62532  0.75066  0.81296  1.0000
  O   O1        1.0  0.18441  0.39674  0.97473  1.0000
  O   O2        1.0  0.18463  0.39672  0.47470  1.0000
  O   O3        1.0  0.68455  0.39670  0.22469  1.0000
  O   O4        1.0  0.68455  0.39670  0.72470  1.0000
  O   O5        1.0  0.43450  0.89675  0.09970  1.0000
  O   O6        1.0  0.43446  0.89662  0.59966  1.0000
  O   O7        1.0  0.93456  0.89667  0.34971  1.0000
  O   O8        1.0  0.93448  0.89672  0.84972  1.0000
  O   O9        1.0  0.32320  0.11842  0.26559  1.0000
  O   O10       1.0  0.32311  0.11832  0.76559  1.0000
  O   O11       1.0  0.82319  0.11838  0.51559  1.0000
  O   O12       1.0  0.82316  0.11847  0.01556  1.0000
  O   O13       1.0  0.57310  0.61833  0.39060  1.0000
  O   O14       1.0  0.57313  0.61840  0.89065  1.0000
  O   O15       1.0  0.07322  0.61829  0.64072  1.0000
  O   O16       1.0  0.07313  0.61846  0.14079  1.0000
  O   O17       1.0  0.04536  0.11828  0.40459  1.0000
  O   O18       1.0  0.04533  0.11838  0.90457  1.0000
  O   O19       1.0  0.54524  0.11827  0.65451  1.0000
  O   O20       1.0  0.54548  0.11827  0.15459  1.0000
  O   O21       1.0  0.29528  0.61832  0.52959  1.0000
  O   O22       1.0  0.29533  0.61832  0.02962  1.0000
  O   O23       1.0  0.79529  0.61843  0.77950  1.0000
  O   O24       1.0  0.79523  0.61833  0.27955  1.0000
  O   O25       1.0  0.06612  0.10456  0.15108  1.0000
  O   O26       1.0  0.06610  0.10449  0.65118  1.0000
  O   O27       1.0  0.56618  0.10442  0.40114  1.0000
  O   O28       1.0  0.56613  0.10447  0.90111  1.0000
  O   O29       1.0  0.31620  0.60450  0.27604  1.0000
  O   O30       1.0  0.31625  0.60444  0.77611  1.0000
  O   O31       1.0  0.81620  0.60448  0.52608  1.0000
  O   O32       1.0  0.81610  0.60462  0.02611  1.0000
  O   O33       1.0  0.92726  0.38238  0.08162  1.0000
  O   O34       1.0  0.92728  0.38229  0.58163  1.0000
  O   O35       1.0  0.42737  0.38231  0.33171  1.0000
  O   O36       1.0  0.42728  0.38219  0.83167  1.0000
  O   O37       1.0  0.17734  0.88245  0.20670  1.0000
  O   O38       1.0  0.17724  0.88227  0.70673  1.0000
  O   O39       1.0  0.67726  0.88221  0.45667  1.0000
  O   O40       1.0  0.67732  0.88224  0.95670  1.0000
  O   O41       1.0  0.92758  0.38304  0.86020  1.0000
  O   O42       1.0  0.92765  0.38289  0.36016  1.0000
  O   O43       1.0  0.42759  0.38276  0.11018  1.0000
  O   O44       1.0  0.42762  0.38277  0.61022  1.0000
  O   O45       1.0  0.17751  0.88289  0.98526  1.0000
  O   O46       1.0  0.17749  0.88278  0.48528  1.0000
  O   O47       1.0  0.67748  0.88283  0.23526  1.0000
  O   O48       1.0  0.67748  0.88289  0.73525  1.0000
  O   O49       1.0  0.32347  0.11905  0.04419  1.0000
  O   O50       1.0  0.32333  0.11892  0.54415  1.0000
  O   O51       1.0  0.82343  0.11897  0.29420  1.0000
  O   O52       1.0  0.82336  0.11901  0.79411  1.0000
  O   O53       1.0  0.57334  0.61892  0.16914  1.0000
  O   O54       1.0  0.57331  0.61896  0.66922  1.0000
  O   O55       1.0  0.07344  0.61892  0.41925  1.0000
  O   O56       1.0  0.07345  0.61910  0.91929  1.0000
  O   O57       1.0  0.20534  0.38288  0.72131  1.0000
  O   O58       1.0  0.20544  0.38287  0.22126  1.0000
  O   O59       1.0  0.70542  0.38294  0.97117  1.0000
  O   O60       1.0  0.70539  0.38290  0.47123  1.0000
  O   O61       1.0  0.45533  0.88295  0.84632  1.0000
  O   O62       1.0  0.45526  0.88286  0.34622  1.0000
  O   O63       1.0  0.95534  0.88294  0.09631  1.0000
  O   O64       1.0  0.95528  0.88288  0.59631  1.0000
