data_image0
_chemical_formula_structural       Mg48Si24O96
_chemical_formula_sum              "Mg48 Si24 O96"
_cell_length_a       14.2539
_cell_length_b       11.9121
_cell_length_c       10.1519
_cell_angle_alpha    90.0059
_cell_angle_beta     89.9973
_cell_angle_gamma    89.997

_space_group_name_H-M_alt    "P 1"
_space_group_IT_number       1

loop_
  _space_group_symop_operation_xyz
  'x, y, z'

loop_
  _atom_site_type_symbol
  _atom_site_label
  _atom_site_symmetry_multiplicity
  _atom_site_fract_x
  _atom_site_fract_y
  _atom_site_fract_z
  _atom_site_occupancy
  Mg  Mg1       1.0  0.00036  0.00042  0.00047  1.0000
  Mg  Mg2       1.0  0.00040  0.50044  0.00050  1.0000
  Mg  Mg3       1.0  0.33366  0.00046  0.00037  1.0000
  Mg  Mg4       1.0  0.33370  0.50053  0.00044  1.0000
  Mg  Mg5       1.0  0.66705  0.00041  0.00043  1.0000
  Mg  Mg6       1.0  0.66705  0.50045  0.00048  1.0000
  Mg  Mg7       1.0  0.16708  0.00034  0.50049  1.0000
  Mg  Mg8       1.0  0.16702  0.50038  0.50049  1.0000
  Mg  Mg9       1.0  0.50031  0.00042  0.50055  1.0000
  Mg  Mg10      1.0  0.50036  0.50042  0.50054  1.0000
  Mg  Mg11      1.0  0.83368  0.00053  0.50040  1.0000
  Mg  Mg12      1.0  0.83365  0.50047  0.50036  1.0000
  Mg  Mg13      1.0  0.00034  0.25043  0.00051  1.0000
  Mg  Mg14      1.0  0.00031  0.75045  0.00040  1.0000
  Mg  Mg15      1.0  0.33375  0.25049  0.00053  1.0000
  Mg  Mg16      1.0  0.33368  0.75047  0.00055  1.0000
  Mg  Mg17      1.0  0.66701  0.25042  0.00040  1.0000
  Mg  Mg18      1.0  0.66707  0.75047  0.00051  1.0000
  Mg  Mg19      1.0  0.16705  0.25038  0.50034  1.0000
  Mg  Mg20      1.0  0.16702  0.75038  0.50035  1.0000
  Mg  Mg21      1.0  0.50030  0.25042  0.50045  1.0000
  Mg  Mg22      1.0  0.50036  0.75038  0.50044  1.0000
  Mg  Mg23      1.0  0.83373  0.25049  0.50064  1.0000
  Mg  Mg24      1.0  0.83364  0.75049  0.50056  1.0000
  Mg  Mg25      1.0  0.00335  0.37545  0.72376  1.0000
  Mg  Mg26      1.0  0.00326  0.87548  0.72371  1.0000
  Mg  Mg27      1.0  0.33654  0.37546  0.72376  1.0000
  Mg  Mg28      1.0  0.33661  0.87541  0.72381  1.0000
  Mg  Mg29      1.0  0.66989  0.37548  0.72378  1.0000
  Mg  Mg30      1.0  0.66989  0.87551  0.72376  1.0000
  Mg  Mg31      1.0  0.16995  0.12537  0.77715  1.0000
  Mg  Mg32      1.0  0.16993  0.62540  0.77712  1.0000
  Mg  Mg33      1.0  0.50326  0.12544  0.77718  1.0000
  Mg  Mg34      1.0  0.50323  0.62553  0.77722  1.0000
  Mg  Mg35      1.0  0.83665  0.12544  0.77719  1.0000
  Mg  Mg36      1.0  0.83663  0.62539  0.77710  1.0000
  Mg  Mg37      1.0  0.33083  0.12537  0.27716  1.0000
  Mg  Mg38      1.0  0.33078  0.62542  0.27715  1.0000
  Mg  Mg39      1.0  0.66406  0.12541  0.27715  1.0000
  Mg  Mg40      1.0  0.66417  0.62543  0.27719  1.0000
  Mg  Mg41      1.0  0.99749  0.12547  0.27720  1.0000
  Mg  Mg42      1.0  0.99744  0.62548  0.27716  1.0000
  Mg  Mg43      1.0  0.16412  0.37555  0.22376  1.0000
  Mg  Mg44      1.0  0.16412  0.87550  0.22376  1.0000
  Mg  Mg45      1.0  0.49743  0.37550  0.22378  1.0000
  Mg  Mg46      1.0  0.49740  0.87549  0.22379  1.0000
  Mg  Mg47      1.0  0.83073  0.37539  0.22376  1.0000
  Mg  Mg48      1.0  0.83077  0.87547  0.22379  1.0000
  Si  Si1       1.0  0.30945  0.37547  0.40647  1.0000
  Si  Si2       1.0  0.30948  0.87538  0.40643  1.0000
  Si  Si3       1.0  0.64277  0.37538  0.40648  1.0000
  Si  Si4       1.0  0.64273  0.87543  0.40645  1.0000
  Si  Si5       1.0  0.97612  0.37543  0.40650  1.0000
  Si  Si6       1.0  0.97612  0.87547  0.40647  1.0000
  Si  Si7       1.0  0.14281  0.12547  0.09447  1.0000
  Si  Si8       1.0  0.14280  0.62555  0.09447  1.0000
  Si  Si9       1.0  0.47613  0.12538  0.09442  1.0000
  Si  Si10      1.0  0.47614  0.62555  0.09456  1.0000
  Si  Si11      1.0  0.80944  0.12545  0.09452  1.0000
  Si  Si12      1.0  0.80951  0.62544  0.09445  1.0000
  Si  Si13      1.0  0.02466  0.12541  0.59444  1.0000
  Si  Si14      1.0  0.02460  0.62543  0.59439  1.0000
  Si  Si15      1.0  0.35791  0.12545  0.59450  1.0000
  Si  Si16      1.0  0.35791  0.62547  0.59446  1.0000
  Si  Si17      1.0  0.69124  0.12548  0.59447  1.0000
  Si  Si18      1.0  0.69122  0.62542  0.59450  1.0000
  Si  Si19      1.0  0.19129  0.37537  0.90648  1.0000
  Si  Si20      1.0  0.19123  0.87536  0.90642  1.0000
  Si  Si21      1.0  0.52457  0.37551  0.90650  1.0000
  Si  Si22      1.0  0.52460  0.87543  0.90654  1.0000
  Si  Si23      1.0  0.85797  0.37543  0.90636  1.0000
  Si  Si24      1.0  0.85791  0.87543  0.90639  1.0000
  O   O1        1.0  0.09254  0.23478  0.16375  1.0000
  O   O2        1.0  0.09249  0.73485  0.16369  1.0000
  O   O3        1.0  0.42590  0.23469  0.16375  1.0000
  O   O4        1.0  0.42578  0.73483  0.16380  1.0000
  O   O5        1.0  0.75912  0.23476  0.16375  1.0000
  O   O6        1.0  0.75923  0.73476  0.16371  1.0000
  O   O7        1.0  0.25923  0.26615  0.33717  1.0000
  O   O8        1.0  0.25918  0.76612  0.33712  1.0000
  O   O9        1.0  0.59242  0.26613  0.33716  1.0000
  O   O10       1.0  0.59248  0.76611  0.33724  1.0000
  O   O11       1.0  0.92582  0.26611  0.33730  1.0000
  O   O12       1.0  0.92580  0.76617  0.33724  1.0000
  O   O13       1.0  0.24153  0.48463  0.83710  1.0000
  O   O14       1.0  0.24152  0.98463  0.83711  1.0000
  O   O15       1.0  0.57485  0.48482  0.83727  1.0000
  O   O16       1.0  0.57488  0.98471  0.83723  1.0000
  O   O17       1.0  0.90827  0.48470  0.83708  1.0000
  O   O18       1.0  0.90821  0.98470  0.83711  1.0000
  O   O19       1.0  0.07495  0.01612  0.66373  1.0000
  O   O20       1.0  0.07491  0.51615  0.66368  1.0000
  O   O21       1.0  0.40820  0.01622  0.66387  1.0000
  O   O22       1.0  0.40814  0.51615  0.66373  1.0000
  O   O23       1.0  0.74156  0.01619  0.66369  1.0000
  O   O24       1.0  0.74156  0.51612  0.66368  1.0000
  O   O25       1.0  0.24161  0.26604  0.83726  1.0000
  O   O26       1.0  0.24153  0.76603  0.83723  1.0000
  O   O27       1.0  0.57484  0.26621  0.83716  1.0000
  O   O28       1.0  0.57492  0.76614  0.83725  1.0000
  O   O29       1.0  0.90829  0.26610  0.83718  1.0000
  O   O30       1.0  0.90817  0.76608  0.83718  1.0000
  O   O31       1.0  0.07493  0.23473  0.66365  1.0000
  O   O32       1.0  0.07485  0.73475  0.66364  1.0000
  O   O33       1.0  0.40817  0.23481  0.66364  1.0000
  O   O34       1.0  0.40823  0.73472  0.66380  1.0000
  O   O35       1.0  0.74155  0.23476  0.66376  1.0000
  O   O36       1.0  0.74149  0.73472  0.66381  1.0000
  O   O37       1.0  0.09251  0.01619  0.16371  1.0000
  O   O38       1.0  0.09254  0.51627  0.16377  1.0000
  O   O39       1.0  0.42579  0.01612  0.16367  1.0000
  O   O40       1.0  0.42583  0.51626  0.16379  1.0000
  O   O41       1.0  0.75915  0.01617  0.16378  1.0000
  O   O42       1.0  0.75922  0.51616  0.16376  1.0000
  O   O43       1.0  0.25912  0.48474  0.33722  1.0000
  O   O44       1.0  0.25918  0.98467  0.33720  1.0000
  O   O45       1.0  0.59254  0.48473  0.33729  1.0000
  O   O46       1.0  0.59244  0.98470  0.33717  1.0000
  O   O47       1.0  0.92583  0.48473  0.33720  1.0000
  O   O48       1.0  0.92586  0.98477  0.33718  1.0000
  O   O49       1.0  0.25965  0.37541  0.55451  1.0000
  O   O50       1.0  0.25974  0.87536  0.55451  1.0000
  O   O51       1.0  0.59300  0.37535  0.55455  1.0000
  O   O52       1.0  0.59298  0.87544  0.55451  1.0000
  O   O53       1.0  0.92640  0.37548  0.55460  1.0000
  O   O54       1.0  0.92634  0.87553  0.55454  1.0000
  O   O55       1.0  0.09304  0.12543  0.94642  1.0000
  O   O56       1.0  0.09307  0.62546  0.94640  1.0000
  O   O57       1.0  0.42636  0.12541  0.94638  1.0000
  O   O58       1.0  0.42640  0.62552  0.94648  1.0000
  O   O59       1.0  0.75974  0.12542  0.94641  1.0000
  O   O60       1.0  0.75977  0.62541  0.94637  1.0000
  O   O61       1.0  0.07439  0.12535  0.44635  1.0000
  O   O62       1.0  0.07435  0.62537  0.44632  1.0000
  O   O63       1.0  0.40767  0.12536  0.44644  1.0000
  O   O64       1.0  0.40768  0.62549  0.44640  1.0000
  O   O65       1.0  0.74102  0.12552  0.44640  1.0000
  O   O66       1.0  0.74099  0.62549  0.44645  1.0000
  O   O67       1.0  0.24104  0.37548  0.05454  1.0000
  O   O68       1.0  0.24098  0.87547  0.05449  1.0000
  O   O69       1.0  0.57435  0.37545  0.05455  1.0000
  O   O70       1.0  0.57436  0.87543  0.05460  1.0000
  O   O71       1.0  0.90765  0.37548  0.05447  1.0000
  O   O72       1.0  0.90763  0.87547  0.05447  1.0000
  O   O73       1.0  0.08974  0.37538  0.40901  1.0000
  O   O74       1.0  0.08974  0.87542  0.40907  1.0000
  O   O75       1.0  0.42306  0.37552  0.40905  1.0000
  O   O76       1.0  0.42308  0.87542  0.40905  1.0000
  O   O77       1.0  0.75639  0.37539  0.40905  1.0000
  O   O78       1.0  0.75636  0.87550  0.40907  1.0000
  O   O79       1.0  0.25642  0.12546  0.09186  1.0000
  O   O80       1.0  0.25643  0.62549  0.09188  1.0000
  O   O81       1.0  0.58975  0.12536  0.09182  1.0000
  O   O82       1.0  0.58977  0.62551  0.09197  1.0000
  O   O83       1.0  0.92304  0.12549  0.09195  1.0000
  O   O84       1.0  0.92313  0.62543  0.09190  1.0000
  O   O85       1.0  0.24430  0.12540  0.59184  1.0000
  O   O86       1.0  0.24429  0.62546  0.59184  1.0000
  O   O87       1.0  0.57762  0.12544  0.59190  1.0000
  O   O88       1.0  0.57761  0.62539  0.59191  1.0000
  O   O89       1.0  0.91103  0.12543  0.59193  1.0000
  O   O90       1.0  0.91100  0.62546  0.59180  1.0000
  O   O91       1.0  0.07768  0.37541  0.90909  1.0000
  O   O92       1.0  0.07761  0.87538  0.90895  1.0000
  O   O93       1.0  0.41095  0.37549  0.90912  1.0000
  O   O94       1.0  0.41100  0.87543  0.90909  1.0000
  O   O95       1.0  0.74435  0.37544  0.90894  1.0000
  O   O96       1.0  0.74429  0.87545  0.90898  1.0000
