data_image0
_chemical_formula_structural       Sr8Ta16Bi16O72
_chemical_formula_sum              "Sr8 Ta16 Bi16 O72"
_cell_length_a       11.0983
_cell_length_b       11.1007
_cell_length_c       12.8524
_cell_angle_alpha    102.471
_cell_angle_beta     89.9996
_cell_angle_gamma    90.0001

_space_group_name_H-M_alt    "P 1"
_space_group_IT_number       1

loop_
  _space_group_symop_operation_xyz
  'x, y, z'

loop_
  _atom_site_type_symbol
  _atom_site_label
  _atom_site_symmetry_multiplicity
  _atom_site_fract_x
  _atom_site_fract_y
  _atom_site_fract_z
  _atom_site_occupancy
  Sr  Sr1       1.0  0.00839  0.37473  0.00037  1.0000
  Sr  Sr2       1.0  0.00847  0.87476  0.00042  1.0000
  Sr  Sr3       1.0  0.50842  0.37480  0.00041  1.0000
  Sr  Sr4       1.0  0.50839  0.87481  0.00040  1.0000
  Sr  Sr5       1.0  0.25840  0.12635  0.00039  1.0000
  Sr  Sr6       1.0  0.25839  0.62635  0.00041  1.0000
  Sr  Sr7       1.0  0.75841  0.12629  0.00037  1.0000
  Sr  Sr8       1.0  0.75847  0.62630  0.00043  1.0000
  Ta  Ta1       1.0  0.01073  0.16631  0.16789  1.0000
  Ta  Ta2       1.0  0.01075  0.66632  0.16791  1.0000
  Ta  Ta3       1.0  0.51075  0.16628  0.16787  1.0000
  Ta  Ta4       1.0  0.51071  0.66630  0.16788  1.0000
  Ta  Ta5       1.0  0.26070  0.41855  0.16786  1.0000
  Ta  Ta6       1.0  0.26073  0.91858  0.16790  1.0000
  Ta  Ta7       1.0  0.76075  0.41859  0.16788  1.0000
  Ta  Ta8       1.0  0.76073  0.91853  0.16786  1.0000
  Ta  Ta9       1.0  0.01073  0.08254  0.83290  1.0000
  Ta  Ta10      1.0  0.01076  0.58255  0.83288  1.0000
  Ta  Ta11      1.0  0.51072  0.08252  0.83289  1.0000
  Ta  Ta12      1.0  0.51077  0.58256  0.83290  1.0000
  Ta  Ta13      1.0  0.26075  0.33477  0.83290  1.0000
  Ta  Ta14      1.0  0.26074  0.83478  0.83289  1.0000
  Ta  Ta15      1.0  0.76071  0.33480  0.83291  1.0000
  Ta  Ta16      1.0  0.76075  0.83479  0.83289  1.0000
  Bi  Bi1       1.0  0.46823  0.49124  0.40061  1.0000
  Bi  Bi2       1.0  0.46824  0.99132  0.40058  1.0000
  Bi  Bi3       1.0  0.96831  0.49127  0.40062  1.0000
  Bi  Bi4       1.0  0.96824  0.99132  0.40058  1.0000
  Bi  Bi5       1.0  0.21824  0.00976  0.60016  1.0000
  Bi  Bi6       1.0  0.21824  0.50974  0.60021  1.0000
  Bi  Bi7       1.0  0.71824  0.00975  0.60015  1.0000
  Bi  Bi8       1.0  0.71825  0.50977  0.60021  1.0000
  Bi  Bi9       1.0  0.21832  0.20991  0.40061  1.0000
  Bi  Bi10      1.0  0.21830  0.70988  0.40061  1.0000
  Bi  Bi11      1.0  0.71826  0.20986  0.40059  1.0000
  Bi  Bi12      1.0  0.71824  0.70989  0.40063  1.0000
  Bi  Bi13      1.0  0.46828  0.29122  0.60018  1.0000
  Bi  Bi14      1.0  0.46826  0.79111  0.60017  1.0000
  Bi  Bi15      1.0  0.96823  0.29118  0.60019  1.0000
  Bi  Bi16      1.0  0.96827  0.79113  0.60015  1.0000
  O   O1        1.0  0.39776  0.30128  0.16911  1.0000
  O   O2        1.0  0.39777  0.80130  0.16912  1.0000
  O   O3        1.0  0.89779  0.30128  0.16910  1.0000
  O   O4        1.0  0.89783  0.80131  0.16915  1.0000
  O   O5        1.0  0.14790  0.19970  0.83163  1.0000
  O   O6        1.0  0.14791  0.69972  0.83160  1.0000
  O   O7        1.0  0.64780  0.19974  0.83162  1.0000
  O   O8        1.0  0.64793  0.69963  0.83161  1.0000
  O   O9        1.0  0.14775  0.28416  0.16910  1.0000
  O   O10       1.0  0.14784  0.78419  0.16916  1.0000
  O   O11       1.0  0.64778  0.28419  0.16911  1.0000
  O   O12       1.0  0.64783  0.78416  0.16921  1.0000
  O   O13       1.0  0.39785  0.21697  0.83167  1.0000
  O   O14       1.0  0.39789  0.71700  0.83168  1.0000
  O   O15       1.0  0.89787  0.21696  0.83162  1.0000
  O   O16       1.0  0.89793  0.71700  0.83160  1.0000
  O   O17       1.0  0.38444  0.04023  0.13577  1.0000
  O   O18       1.0  0.38439  0.54031  0.13582  1.0000
  O   O19       1.0  0.88441  0.04027  0.13572  1.0000
  O   O20       1.0  0.88439  0.54031  0.13583  1.0000
  O   O21       1.0  0.13438  0.46075  0.86497  1.0000
  O   O22       1.0  0.13440  0.96075  0.86488  1.0000
  O   O23       1.0  0.63436  0.46077  0.86502  1.0000
  O   O24       1.0  0.63439  0.96074  0.86498  1.0000
  O   O25       1.0  0.13440  0.02855  0.13583  1.0000
  O   O26       1.0  0.13440  0.52853  0.13575  1.0000
  O   O27       1.0  0.63440  0.02855  0.13581  1.0000
  O   O28       1.0  0.63442  0.52855  0.13578  1.0000
  O   O29       1.0  0.38442  0.47260  0.86500  1.0000
  O   O30       1.0  0.38442  0.97262  0.86507  1.0000
  O   O31       1.0  0.88438  0.47260  0.86499  1.0000
  O   O32       1.0  0.88437  0.97259  0.86501  1.0000
  O   O33       1.0  0.35940  0.13363  0.50215  1.0000
  O   O34       1.0  0.35943  0.63361  0.50217  1.0000
  O   O35       1.0  0.85938  0.13365  0.50211  1.0000
  O   O36       1.0  0.85935  0.63360  0.50213  1.0000
  O   O37       1.0  0.10940  0.36745  0.49861  1.0000
  O   O38       1.0  0.10935  0.86739  0.49863  1.0000
  O   O39       1.0  0.60937  0.36738  0.49863  1.0000
  O   O40       1.0  0.60938  0.86743  0.49859  1.0000
  O   O41       1.0  0.26689  0.35365  0.00041  1.0000
  O   O42       1.0  0.26685  0.85368  0.00040  1.0000
  O   O43       1.0  0.76689  0.35364  0.00038  1.0000
  O   O44       1.0  0.76689  0.85361  0.00042  1.0000
  O   O45       1.0  0.01696  0.14740  0.00037  1.0000
  O   O46       1.0  0.01692  0.64746  0.00035  1.0000
  O   O47       1.0  0.51695  0.14747  0.00039  1.0000
  O   O48       1.0  0.51693  0.64751  0.00039  1.0000
  O   O49       1.0  0.26893  0.48920  0.31514  1.0000
  O   O50       1.0  0.26899  0.98922  0.31513  1.0000
  O   O51       1.0  0.76903  0.48915  0.31514  1.0000
  O   O52       1.0  0.76905  0.98919  0.31508  1.0000
  O   O53       1.0  0.01896  0.01192  0.68562  1.0000
  O   O54       1.0  0.01896  0.51183  0.68563  1.0000
  O   O55       1.0  0.51894  0.01188  0.68564  1.0000
  O   O56       1.0  0.51893  0.51188  0.68565  1.0000
  O   O57       1.0  0.01897  0.16925  0.31513  1.0000
  O   O58       1.0  0.01902  0.66928  0.31516  1.0000
  O   O59       1.0  0.51897  0.16929  0.31514  1.0000
  O   O60       1.0  0.51895  0.66929  0.31514  1.0000
  O   O61       1.0  0.26903  0.33180  0.68566  1.0000
  O   O62       1.0  0.26912  0.83188  0.68565  1.0000
  O   O63       1.0  0.76896  0.33186  0.68567  1.0000
  O   O64       1.0  0.76898  0.83172  0.68563  1.0000
  O   O65       1.0  0.35937  0.38275  0.49862  1.0000
  O   O66       1.0  0.35937  0.88269  0.49857  1.0000
  O   O67       1.0  0.85938  0.38273  0.49868  1.0000
  O   O68       1.0  0.85935  0.88276  0.49860  1.0000
  O   O69       1.0  0.10942  0.11833  0.50214  1.0000
  O   O70       1.0  0.10938  0.61829  0.50215  1.0000
  O   O71       1.0  0.60940  0.11827  0.50215  1.0000
  O   O72       1.0  0.60937  0.61827  0.50216  1.0000
