data_image0
_chemical_formula_structural       K8Ta40O104
_chemical_formula_sum              "K8 Ta40 O104"
_cell_length_a       11.346
_cell_length_b       10.747
_cell_length_c       16.8655
_cell_angle_alpha    90
_cell_angle_beta     90
_cell_angle_gamma    90

_space_group_name_H-M_alt    "P 1"
_space_group_IT_number       1

loop_
  _space_group_symop_operation_xyz
  'x, y, z'

loop_
  _atom_site_type_symbol
  _atom_site_label
  _atom_site_symmetry_multiplicity
  _atom_site_fract_x
  _atom_site_fract_y
  _atom_site_fract_z
  _atom_site_occupancy
  K   K1        1.0  0.39890  0.32649  0.75020  1.0000
  K   K2        1.0  0.89905  0.32641  0.75035  1.0000
  K   K3        1.0  0.39884  0.17470  0.25037  1.0000
  K   K4        1.0  0.89878  0.17456  0.25017  1.0000
  K   K5        1.0  0.10229  0.82609  0.75041  1.0000
  K   K6        1.0  0.60220  0.82601  0.75042  1.0000
  K   K7        1.0  0.10236  0.67487  0.25037  1.0000
  K   K8        1.0  0.60221  0.67437  0.25039  1.0000
  Ta  Ta1       1.0  0.16768  0.75056  0.50028  1.0000
  Ta  Ta2       1.0  0.66767  0.75051  0.50030  1.0000
  Ta  Ta3       1.0  0.33327  0.25051  0.00028  1.0000
  Ta  Ta4       1.0  0.83319  0.25041  0.00033  1.0000
  Ta  Ta5       1.0  0.33332  0.25043  0.50024  1.0000
  Ta  Ta6       1.0  0.83321  0.25055  0.50029  1.0000
  Ta  Ta7       1.0  0.16764  0.75046  0.00024  1.0000
  Ta  Ta8       1.0  0.66760  0.75043  0.00027  1.0000
  Ta  Ta9       1.0  0.17283  0.36728  0.36306  1.0000
  Ta  Ta10      1.0  0.67281  0.36718  0.36313  1.0000
  Ta  Ta11      1.0  0.17289  0.13376  0.63744  1.0000
  Ta  Ta12      1.0  0.67280  0.13387  0.63752  1.0000
  Ta  Ta13      1.0  0.32796  0.86720  0.13749  1.0000
  Ta  Ta14      1.0  0.82809  0.86719  0.13743  1.0000
  Ta  Ta15      1.0  0.32820  0.63371  0.86309  1.0000
  Ta  Ta16      1.0  0.82806  0.63377  0.86308  1.0000
  Ta  Ta17      1.0  0.32810  0.63374  0.63748  1.0000
  Ta  Ta18      1.0  0.82816  0.63386  0.63746  1.0000
  Ta  Ta19      1.0  0.32816  0.86720  0.36311  1.0000
  Ta  Ta20      1.0  0.82814  0.86719  0.36305  1.0000
  Ta  Ta21      1.0  0.17280  0.13390  0.86307  1.0000
  Ta  Ta22      1.0  0.67272  0.13366  0.86311  1.0000
  Ta  Ta23      1.0  0.17276  0.36726  0.13744  1.0000
  Ta  Ta24      1.0  0.67265  0.36711  0.13749  1.0000
  Ta  Ta25      1.0  0.08070  0.06395  0.42423  1.0000
  Ta  Ta26      1.0  0.58082  0.06377  0.42429  1.0000
  Ta  Ta27      1.0  0.08078  0.43715  0.57629  1.0000
  Ta  Ta28      1.0  0.58072  0.43724  0.57625  1.0000
  Ta  Ta29      1.0  0.42010  0.56392  0.07635  1.0000
  Ta  Ta30      1.0  0.92000  0.56378  0.07635  1.0000
  Ta  Ta31      1.0  0.42014  0.93708  0.92429  1.0000
  Ta  Ta32      1.0  0.92011  0.93711  0.92421  1.0000
  Ta  Ta33      1.0  0.42023  0.93708  0.57639  1.0000
  Ta  Ta34      1.0  0.92012  0.93727  0.57622  1.0000
  Ta  Ta35      1.0  0.42007  0.56388  0.42425  1.0000
  Ta  Ta36      1.0  0.92021  0.56387  0.42431  1.0000
  Ta  Ta37      1.0  0.08072  0.43722  0.92432  1.0000
  Ta  Ta38      1.0  0.58069  0.43702  0.92431  1.0000
  Ta  Ta39      1.0  0.08070  0.06389  0.07621  1.0000
  Ta  Ta40      1.0  0.58065  0.06379  0.07633  1.0000
  O   O1        1.0  0.20015  0.74759  0.38862  1.0000
  O   O2        1.0  0.70007  0.74783  0.38857  1.0000
  O   O3        1.0  0.20016  0.75321  0.61199  1.0000
  O   O4        1.0  0.70004  0.75326  0.61200  1.0000
  O   O5        1.0  0.30086  0.24773  0.11196  1.0000
  O   O6        1.0  0.80067  0.24755  0.11202  1.0000
  O   O7        1.0  0.30083  0.25342  0.88855  1.0000
  O   O8        1.0  0.80079  0.25315  0.88863  1.0000
  O   O9        1.0  0.30091  0.25320  0.61196  1.0000
  O   O10       1.0  0.80081  0.25326  0.61200  1.0000
  O   O11       1.0  0.30093  0.24782  0.38854  1.0000
  O   O12       1.0  0.80086  0.24775  0.38858  1.0000
  O   O13       1.0  0.20016  0.75319  0.88855  1.0000
  O   O14       1.0  0.70005  0.75319  0.88859  1.0000
  O   O15       1.0  0.19998  0.74774  0.11197  1.0000
  O   O16       1.0  0.70010  0.74774  0.11197  1.0000
  O   O17       1.0  0.20491  0.99640  0.36518  1.0000
  O   O18       1.0  0.70493  0.99654  0.36503  1.0000
  O   O19       1.0  0.20500  0.50444  0.63545  1.0000
  O   O20       1.0  0.70494  0.50460  0.63535  1.0000
  O   O21       1.0  0.29582  0.49663  0.13543  1.0000
  O   O22       1.0  0.79592  0.49623  0.13551  1.0000
  O   O23       1.0  0.29606  0.00466  0.86518  1.0000
  O   O24       1.0  0.79594  0.00446  0.86505  1.0000
  O   O25       1.0  0.29598  0.00441  0.63552  1.0000
  O   O26       1.0  0.79606  0.00464  0.63541  1.0000
  O   O27       1.0  0.29600  0.49650  0.36501  1.0000
  O   O28       1.0  0.79602  0.49649  0.36518  1.0000
  O   O29       1.0  0.20492  0.50455  0.86515  1.0000
  O   O30       1.0  0.70490  0.50452  0.86524  1.0000
  O   O31       1.0  0.20477  0.99647  0.13543  1.0000
  O   O32       1.0  0.70482  0.99635  0.13546  1.0000
  O   O33       1.0  0.18172  0.37528  0.48751  1.0000
  O   O34       1.0  0.68177  0.37517  0.48755  1.0000
  O   O35       1.0  0.18180  0.12587  0.51295  1.0000
  O   O36       1.0  0.68179  0.12582  0.51300  1.0000
  O   O37       1.0  0.31688  0.65400  0.75029  1.0000
  O   O38       1.0  0.81657  0.65378  0.75029  1.0000
  O   O39       1.0  0.31919  0.87514  0.01301  1.0000
  O   O40       1.0  0.81920  0.87511  0.01292  1.0000
  O   O41       1.0  0.31924  0.62578  0.51300  1.0000
  O   O42       1.0  0.81919  0.62602  0.51301  1.0000
  O   O43       1.0  0.31930  0.87508  0.48759  1.0000
  O   O44       1.0  0.81914  0.87524  0.48751  1.0000
  O   O45       1.0  0.18177  0.12587  0.98755  1.0000
  O   O46       1.0  0.68166  0.12573  0.98756  1.0000
  O   O47       1.0  0.18180  0.37526  0.01305  1.0000
  O   O48       1.0  0.68168  0.37508  0.01303  1.0000
  O   O49       1.0  0.04509  0.48435  0.13764  1.0000
  O   O50       1.0  0.54505  0.48429  0.13764  1.0000
  O   O51       1.0  0.04527  0.01657  0.86297  1.0000
  O   O52       1.0  0.54523  0.01639  0.86289  1.0000
  O   O53       1.0  0.45572  0.98436  0.36290  1.0000
  O   O54       1.0  0.95575  0.98438  0.36289  1.0000
  O   O55       1.0  0.45575  0.51660  0.63765  1.0000
  O   O56       1.0  0.95588  0.51679  0.63770  1.0000
  O   O57       1.0  0.45577  0.51648  0.86289  1.0000
  O   O58       1.0  0.95581  0.51677  0.86294  1.0000
  O   O59       1.0  0.45567  0.98433  0.13767  1.0000
  O   O60       1.0  0.95563  0.98437  0.13749  1.0000
  O   O61       1.0  0.04522  0.01676  0.63745  1.0000
  O   O62       1.0  0.54521  0.01663  0.63770  1.0000
  O   O63       1.0  0.04521  0.48443  0.36293  1.0000
  O   O64       1.0  0.54518  0.48430  0.36307  1.0000
  O   O65       1.0  0.06640  0.21945  0.12599  1.0000
  O   O66       1.0  0.56638  0.21933  0.12611  1.0000
  O   O67       1.0  0.06640  0.28164  0.87455  1.0000
  O   O68       1.0  0.56645  0.28150  0.87451  1.0000
  O   O69       1.0  0.43445  0.71933  0.37437  1.0000
  O   O70       1.0  0.93447  0.71939  0.37447  1.0000
  O   O71       1.0  0.43450  0.78157  0.62617  1.0000
  O   O72       1.0  0.93431  0.78179  0.62613  1.0000
  O   O73       1.0  0.43450  0.78149  0.87454  1.0000
  O   O74       1.0  0.93434  0.78160  0.87439  1.0000
  O   O75       1.0  0.43434  0.71936  0.12628  1.0000
  O   O76       1.0  0.93438  0.71930  0.12615  1.0000
  O   O77       1.0  0.06653  0.28153  0.62595  1.0000
  O   O78       1.0  0.56649  0.28166  0.62602  1.0000
  O   O79       1.0  0.06655  0.21945  0.37438  1.0000
  O   O80       1.0  0.56646  0.21941  0.37461  1.0000
  O   O81       1.0  0.06471  0.60621  0.99672  1.0000
  O   O82       1.0  0.56468  0.60621  0.99673  1.0000
  O   O83       1.0  0.06476  0.89473  0.00382  1.0000
  O   O84       1.0  0.56472  0.89471  0.00390  1.0000
  O   O85       1.0  0.43619  0.10614  0.50392  1.0000
  O   O86       1.0  0.93615  0.10623  0.50379  1.0000
  O   O87       1.0  0.43612  0.39481  0.49668  1.0000
  O   O88       1.0  0.93609  0.39492  0.49674  1.0000
  O   O89       1.0  0.43615  0.39482  0.00391  1.0000
  O   O90       1.0  0.93608  0.39473  0.00390  1.0000
  O   O91       1.0  0.43616  0.10614  0.99667  1.0000
  O   O92       1.0  0.93618  0.10622  0.99659  1.0000
  O   O93       1.0  0.06480  0.89477  0.49663  1.0000
  O   O94       1.0  0.56480  0.89485  0.49668  1.0000
  O   O95       1.0  0.06478  0.60625  0.50392  1.0000
  O   O96       1.0  0.56471  0.60627  0.50389  1.0000
  O   O97       1.0  0.18427  0.34705  0.25025  1.0000
  O   O98       1.0  0.68400  0.34716  0.25030  1.0000
  O   O99       1.0  0.18409  0.15408  0.75026  1.0000
  O   O100      1.0  0.68427  0.15412  0.75030  1.0000
  O   O101      1.0  0.31654  0.84701  0.25029  1.0000
  O   O102      1.0  0.81697  0.84708  0.25024  1.0000
  O   O103      1.0  0.31924  0.62583  0.98756  1.0000
  O   O104      1.0  0.81914  0.62579  0.98762  1.0000
