data_image0
_chemical_formula_structural       Ge16Bi32O80
_chemical_formula_sum              "Ge16 Bi32 O80"
_cell_length_a       11.0125
_cell_length_b       15.689
_cell_length_c       10.755
_cell_angle_alpha    90.0003
_cell_angle_beta     89.9966
_cell_angle_gamma    89.9965

_space_group_name_H-M_alt    "P 1"
_space_group_IT_number       1

loop_
  _space_group_symop_operation_xyz
  'x, y, z'

loop_
  _atom_site_type_symbol
  _atom_site_label
  _atom_site_symmetry_multiplicity
  _atom_site_fract_x
  _atom_site_fract_y
  _atom_site_fract_z
  _atom_site_occupancy
  Ge  Ge1       1.0  0.34406  0.00037  0.14965  1.0000
  Ge  Ge2       1.0  0.34422  0.00034  0.64957  1.0000
  Ge  Ge3       1.0  0.59417  0.50034  0.14952  1.0000
  Ge  Ge4       1.0  0.59422  0.50033  0.64960  1.0000
  Ge  Ge5       1.0  0.84414  0.00027  0.14961  1.0000
  Ge  Ge6       1.0  0.84417  0.00034  0.64960  1.0000
  Ge  Ge7       1.0  0.09411  0.50030  0.14967  1.0000
  Ge  Ge8       1.0  0.09411  0.50033  0.64971  1.0000
  Ge  Ge9       1.0  0.15677  0.00029  0.39964  1.0000
  Ge  Ge10      1.0  0.15680  0.00037  0.89967  1.0000
  Ge  Ge11      1.0  0.40692  0.50030  0.39960  1.0000
  Ge  Ge12      1.0  0.40688  0.50037  0.89959  1.0000
  Ge  Ge13      1.0  0.65681  0.00030  0.39965  1.0000
  Ge  Ge14      1.0  0.65677  0.00038  0.89963  1.0000
  Ge  Ge15      1.0  0.90673  0.50025  0.39972  1.0000
  Ge  Ge16      1.0  0.90669  0.50044  0.89969  1.0000
  Bi  Bi1       1.0  0.38950  0.83183  0.38340  1.0000
  Bi  Bi2       1.0  0.38957  0.83193  0.88341  1.0000
  Bi  Bi3       1.0  0.63949  0.33177  0.38354  1.0000
  Bi  Bi4       1.0  0.63959  0.33194  0.88331  1.0000
  Bi  Bi5       1.0  0.88968  0.83185  0.38341  1.0000
  Bi  Bi6       1.0  0.88937  0.83192  0.88338  1.0000
  Bi  Bi7       1.0  0.13964  0.33185  0.38345  1.0000
  Bi  Bi8       1.0  0.13941  0.33191  0.88335  1.0000
  Bi  Bi9       1.0  0.11142  0.16876  0.13335  1.0000
  Bi  Bi10      1.0  0.11128  0.16864  0.63327  1.0000
  Bi  Bi11      1.0  0.36149  0.66881  0.13345  1.0000
  Bi  Bi12      1.0  0.36127  0.66873  0.63347  1.0000
  Bi  Bi13      1.0  0.61126  0.16883  0.13323  1.0000
  Bi  Bi14      1.0  0.61130  0.16867  0.63347  1.0000
  Bi  Bi15      1.0  0.86129  0.66880  0.13334  1.0000
  Bi  Bi16      1.0  0.86144  0.66876  0.63344  1.0000
  Bi  Bi17      1.0  0.11126  0.83187  0.13326  1.0000
  Bi  Bi18      1.0  0.11138  0.83187  0.63358  1.0000
  Bi  Bi19      1.0  0.36135  0.33199  0.13324  1.0000
  Bi  Bi20      1.0  0.36141  0.33188  0.63351  1.0000
  Bi  Bi21      1.0  0.61137  0.83200  0.13353  1.0000
  Bi  Bi22      1.0  0.61133  0.83191  0.63312  1.0000
  Bi  Bi23      1.0  0.86127  0.33192  0.13339  1.0000
  Bi  Bi24      1.0  0.86147  0.33173  0.63337  1.0000
  Bi  Bi25      1.0  0.38960  0.16880  0.38337  1.0000
  Bi  Bi26      1.0  0.38943  0.16881  0.88334  1.0000
  Bi  Bi27      1.0  0.63966  0.66870  0.38339  1.0000
  Bi  Bi28      1.0  0.63953  0.66884  0.88333  1.0000
  Bi  Bi29      1.0  0.88950  0.16871  0.38318  1.0000
  Bi  Bi30      1.0  0.88950  0.16875  0.88346  1.0000
  Bi  Bi31      1.0  0.13957  0.66871  0.38337  1.0000
  Bi  Bi32      1.0  0.13955  0.66876  0.88354  1.0000
  O   O1        1.0  0.25557  0.75018  0.26850  1.0000
  O   O2        1.0  0.25543  0.75027  0.76860  1.0000
  O   O3        1.0  0.50554  0.25022  0.26847  1.0000
  O   O4        1.0  0.50541  0.25025  0.76836  1.0000
  O   O5        1.0  0.75559  0.75019  0.26853  1.0000
  O   O6        1.0  0.75551  0.75028  0.76838  1.0000
  O   O7        1.0  0.00564  0.25019  0.26850  1.0000
  O   O8        1.0  0.00551  0.25018  0.76846  1.0000
  O   O9        1.0  0.24527  0.25055  0.01853  1.0000
  O   O10       1.0  0.24544  0.25043  0.51857  1.0000
  O   O11       1.0  0.49533  0.75064  0.01856  1.0000
  O   O12       1.0  0.49537  0.75039  0.51848  1.0000
  O   O13       1.0  0.74538  0.25048  0.01849  1.0000
  O   O14       1.0  0.74545  0.25035  0.51851  1.0000
  O   O15       1.0  0.99541  0.75043  0.01843  1.0000
  O   O16       1.0  0.99545  0.75044  0.51855  1.0000
  O   O17       1.0  0.24536  0.75022  0.01854  1.0000
  O   O18       1.0  0.24534  0.75017  0.51863  1.0000
  O   O19       1.0  0.49530  0.25026  0.01837  1.0000
  O   O20       1.0  0.49542  0.25022  0.51853  1.0000
  O   O21       1.0  0.74532  0.75028  0.01846  1.0000
  O   O22       1.0  0.74544  0.75019  0.51843  1.0000
  O   O23       1.0  0.99531  0.25013  0.01855  1.0000
  O   O24       1.0  0.99546  0.25013  0.51840  1.0000
  O   O25       1.0  0.25565  0.25052  0.26857  1.0000
  O   O26       1.0  0.25548  0.25050  0.76863  1.0000
  O   O27       1.0  0.50556  0.75050  0.26847  1.0000
  O   O28       1.0  0.50555  0.75054  0.76848  1.0000
  O   O29       1.0  0.75554  0.25040  0.26850  1.0000
  O   O30       1.0  0.75556  0.25041  0.76855  1.0000
  O   O31       1.0  0.00555  0.75040  0.26849  1.0000
  O   O32       1.0  0.00547  0.75047  0.76857  1.0000
  O   O33       1.0  0.41606  0.90376  0.17688  1.0000
  O   O34       1.0  0.41598  0.90363  0.67662  1.0000
  O   O35       1.0  0.66601  0.40366  0.17684  1.0000
  O   O36       1.0  0.66606  0.40363  0.67690  1.0000
  O   O37       1.0  0.91572  0.90345  0.17662  1.0000
  O   O38       1.0  0.91597  0.90368  0.67703  1.0000
  O   O39       1.0  0.16585  0.40355  0.17669  1.0000
  O   O40       1.0  0.16578  0.40358  0.67695  1.0000
  O   O41       1.0  0.08490  0.09698  0.42687  1.0000
  O   O42       1.0  0.08504  0.09711  0.92682  1.0000
  O   O43       1.0  0.33517  0.59702  0.42681  1.0000
  O   O44       1.0  0.33512  0.59706  0.92691  1.0000
  O   O45       1.0  0.58498  0.09699  0.42698  1.0000
  O   O46       1.0  0.58485  0.09707  0.92669  1.0000
  O   O47       1.0  0.83477  0.59691  0.42685  1.0000
  O   O48       1.0  0.83494  0.59721  0.92663  1.0000
  O   O49       1.0  0.20667  0.00025  0.24085  1.0000
  O   O50       1.0  0.20697  0.00046  0.74093  1.0000
  O   O51       1.0  0.45681  0.50039  0.24078  1.0000
  O   O52       1.0  0.45681  0.50044  0.74080  1.0000
  O   O53       1.0  0.70684  0.00059  0.24094  1.0000
  O   O54       1.0  0.70684  0.00058  0.74090  1.0000
  O   O55       1.0  0.95679  0.50036  0.24095  1.0000
  O   O56       1.0  0.95679  0.50052  0.74098  1.0000
  O   O57       1.0  0.29416  0.00049  0.49085  1.0000
  O   O58       1.0  0.29409  0.00040  0.99093  1.0000
  O   O59       1.0  0.54432  0.50026  0.49079  1.0000
  O   O60       1.0  0.54430  0.50039  0.99068  1.0000
  O   O61       1.0  0.79410  0.00019  0.49089  1.0000
  O   O62       1.0  0.79407  0.00044  0.99088  1.0000
  O   O63       1.0  0.04406  0.50050  0.49101  1.0000
  O   O64       1.0  0.04398  0.50046  0.99097  1.0000
  O   O65       1.0  0.41569  0.09715  0.17677  1.0000
  O   O66       1.0  0.41616  0.09699  0.67693  1.0000
  O   O67       1.0  0.66596  0.59706  0.17673  1.0000
  O   O68       1.0  0.66601  0.59704  0.67684  1.0000
  O   O69       1.0  0.91623  0.09687  0.17690  1.0000
  O   O70       1.0  0.91601  0.09707  0.67653  1.0000
  O   O71       1.0  0.16609  0.59694  0.17688  1.0000
  O   O72       1.0  0.16611  0.59698  0.67684  1.0000
  O   O73       1.0  0.08500  0.90360  0.42693  1.0000
  O   O74       1.0  0.08488  0.90370  0.92676  1.0000
  O   O75       1.0  0.33505  0.40363  0.42692  1.0000
  O   O76       1.0  0.33506  0.40366  0.92671  1.0000
  O   O77       1.0  0.58500  0.90355  0.42658  1.0000
  O   O78       1.0  0.58507  0.90366  0.92686  1.0000
  O   O79       1.0  0.83508  0.40350  0.42688  1.0000
  O   O80       1.0  0.83488  0.40374  0.92695  1.0000
