data_image0
_chemical_formula_structural       Nb24Al24O96
_chemical_formula_sum              "Nb24 Al24 O96"
_cell_length_a       11.3482
_cell_length_b       12.1871
_cell_length_c       13.0299
_cell_angle_alpha    107.805
_cell_angle_beta     90.0003
_cell_angle_gamma    89.9986

_space_group_name_H-M_alt    "P 1"
_space_group_IT_number       1

loop_
  _space_group_symop_operation_xyz
  'x, y, z'

loop_
  _atom_site_type_symbol
  _atom_site_label
  _atom_site_symmetry_multiplicity
  _atom_site_fract_x
  _atom_site_fract_y
  _atom_site_fract_z
  _atom_site_occupancy
  Nb  Nb1       1.0  0.00039  0.10542  0.11935  1.0000
  Nb  Nb2       1.0  0.00049  0.10548  0.61932  1.0000
  Nb  Nb3       1.0  0.33378  0.10546  0.11936  1.0000
  Nb  Nb4       1.0  0.33385  0.10544  0.61938  1.0000
  Nb  Nb5       1.0  0.16714  0.60540  0.11934  1.0000
  Nb  Nb6       1.0  0.16713  0.60544  0.61928  1.0000
  Nb  Nb7       1.0  0.66708  0.10534  0.11934  1.0000
  Nb  Nb8       1.0  0.66720  0.10538  0.61929  1.0000
  Nb  Nb9       1.0  0.50042  0.60538  0.11926  1.0000
  Nb  Nb10      1.0  0.50049  0.60533  0.61932  1.0000
  Nb  Nb11      1.0  0.83378  0.60541  0.11935  1.0000
  Nb  Nb12      1.0  0.83384  0.60543  0.61932  1.0000
  Nb  Nb13      1.0  0.16712  0.39569  0.38139  1.0000
  Nb  Nb14      1.0  0.16709  0.39571  0.88141  1.0000
  Nb  Nb15      1.0  0.50041  0.39567  0.38136  1.0000
  Nb  Nb16      1.0  0.50043  0.39562  0.88139  1.0000
  Nb  Nb17      1.0  0.33381  0.89570  0.38140  1.0000
  Nb  Nb18      1.0  0.33381  0.89574  0.88146  1.0000
  Nb  Nb19      1.0  0.83379  0.39565  0.38141  1.0000
  Nb  Nb20      1.0  0.83378  0.39571  0.88144  1.0000
  Nb  Nb21      1.0  0.66716  0.89570  0.38141  1.0000
  Nb  Nb22      1.0  0.66718  0.89567  0.88135  1.0000
  Nb  Nb23      1.0  0.00046  0.89567  0.38144  1.0000
  Nb  Nb24      1.0  0.00050  0.89570  0.88145  1.0000
  Al  Al1       1.0  0.16710  0.29850  0.08802  1.0000
  Al  Al2       1.0  0.16711  0.29852  0.58799  1.0000
  Al  Al3       1.0  0.50048  0.29848  0.08799  1.0000
  Al  Al4       1.0  0.50051  0.29843  0.58800  1.0000
  Al  Al5       1.0  0.33384  0.79856  0.08802  1.0000
  Al  Al6       1.0  0.33381  0.79848  0.58805  1.0000
  Al  Al7       1.0  0.83373  0.29845  0.08800  1.0000
  Al  Al8       1.0  0.83378  0.29845  0.58801  1.0000
  Al  Al9       1.0  0.66710  0.79844  0.08805  1.0000
  Al  Al10      1.0  0.66703  0.79841  0.58792  1.0000
  Al  Al11      1.0  0.00048  0.79846  0.08805  1.0000
  Al  Al12      1.0  0.00045  0.79853  0.58803  1.0000
  Al  Al13      1.0  0.00042  0.20262  0.41270  1.0000
  Al  Al14      1.0  0.00043  0.20266  0.91275  1.0000
  Al  Al15      1.0  0.33380  0.20259  0.41275  1.0000
  Al  Al16      1.0  0.33376  0.20269  0.91279  1.0000
  Al  Al17      1.0  0.16710  0.70264  0.41274  1.0000
  Al  Al18      1.0  0.16715  0.70264  0.91275  1.0000
  Al  Al19      1.0  0.66710  0.20260  0.41272  1.0000
  Al  Al20      1.0  0.66716  0.20259  0.91269  1.0000
  Al  Al21      1.0  0.50038  0.70258  0.41265  1.0000
  Al  Al22      1.0  0.50051  0.70259  0.91271  1.0000
  Al  Al23      1.0  0.83379  0.70258  0.41275  1.0000
  Al  Al24      1.0  0.83382  0.70261  0.91275  1.0000
  O   O1        1.0  0.00049  0.35642  0.39847  1.0000
  O   O2        1.0  0.00042  0.35667  0.89884  1.0000
  O   O3        1.0  0.33378  0.35644  0.39856  1.0000
  O   O4        1.0  0.33375  0.35657  0.89866  1.0000
  O   O5        1.0  0.16714  0.85650  0.39864  1.0000
  O   O6        1.0  0.16712  0.85655  0.89870  1.0000
  O   O7        1.0  0.66709  0.35646  0.39850  1.0000
  O   O8        1.0  0.66710  0.35652  0.89867  1.0000
  O   O9        1.0  0.50045  0.85650  0.39853  1.0000
  O   O10       1.0  0.50048  0.85645  0.89849  1.0000
  O   O11       1.0  0.83379  0.85646  0.39857  1.0000
  O   O12       1.0  0.83383  0.85648  0.89867  1.0000
  O   O13       1.0  0.16706  0.14472  0.10233  1.0000
  O   O14       1.0  0.16716  0.14463  0.60217  1.0000
  O   O15       1.0  0.50046  0.14465  0.10212  1.0000
  O   O16       1.0  0.50053  0.14454  0.60202  1.0000
  O   O17       1.0  0.33380  0.64466  0.10214  1.0000
  O   O18       1.0  0.33381  0.64456  0.60212  1.0000
  O   O19       1.0  0.83373  0.14456  0.10217  1.0000
  O   O20       1.0  0.83383  0.14458  0.60207  1.0000
  O   O21       1.0  0.66710  0.64463  0.10224  1.0000
  O   O22       1.0  0.66713  0.64453  0.60204  1.0000
  O   O23       1.0  0.00048  0.64447  0.10211  1.0000
  O   O24       1.0  0.00046  0.64463  0.60206  1.0000
  O   O25       1.0  0.16713  0.23705  0.42993  1.0000
  O   O26       1.0  0.16708  0.23714  0.92997  1.0000
  O   O27       1.0  0.50049  0.23704  0.42995  1.0000
  O   O28       1.0  0.50045  0.23706  0.92995  1.0000
  O   O29       1.0  0.33379  0.73715  0.42998  1.0000
  O   O30       1.0  0.33384  0.73712  0.92999  1.0000
  O   O31       1.0  0.83374  0.23710  0.42996  1.0000
  O   O32       1.0  0.83376  0.23708  0.92995  1.0000
  O   O33       1.0  0.66707  0.73705  0.42987  1.0000
  O   O34       1.0  0.66719  0.73707  0.93001  1.0000
  O   O35       1.0  0.00046  0.73716  0.43001  1.0000
  O   O36       1.0  0.00051  0.73705  0.93005  1.0000
  O   O37       1.0  0.00040  0.26403  0.07078  1.0000
  O   O38       1.0  0.00046  0.26400  0.57072  1.0000
  O   O39       1.0  0.33376  0.26398  0.07076  1.0000
  O   O40       1.0  0.33382  0.26407  0.57084  1.0000
  O   O41       1.0  0.16718  0.76404  0.07082  1.0000
  O   O42       1.0  0.16713  0.76402  0.57074  1.0000
  O   O43       1.0  0.66709  0.26392  0.07075  1.0000
  O   O44       1.0  0.66715  0.26406  0.57082  1.0000
  O   O45       1.0  0.50044  0.76404  0.07079  1.0000
  O   O46       1.0  0.50044  0.76395  0.57077  1.0000
  O   O47       1.0  0.83382  0.76401  0.07090  1.0000
  O   O48       1.0  0.83373  0.76401  0.57072  1.0000
  O   O49       1.0  0.16724  0.35968  0.23555  1.0000
  O   O50       1.0  0.16693  0.35959  0.73555  1.0000
  O   O51       1.0  0.50044  0.35959  0.23550  1.0000
  O   O52       1.0  0.50038  0.35947  0.73554  1.0000
  O   O53       1.0  0.33383  0.85972  0.23557  1.0000
  O   O54       1.0  0.33371  0.85950  0.73560  1.0000
  O   O55       1.0  0.83383  0.35949  0.23555  1.0000
  O   O56       1.0  0.83385  0.35944  0.73558  1.0000
  O   O57       1.0  0.66714  0.85971  0.23559  1.0000
  O   O58       1.0  0.66717  0.85946  0.73549  1.0000
  O   O59       1.0  0.00064  0.85952  0.23559  1.0000
  O   O60       1.0  0.00039  0.85951  0.73558  1.0000
  O   O61       1.0  0.00038  0.14153  0.26519  1.0000
  O   O62       1.0  0.00043  0.14172  0.76518  1.0000
  O   O63       1.0  0.33390  0.14149  0.26521  1.0000
  O   O64       1.0  0.33391  0.14175  0.76525  1.0000
  O   O65       1.0  0.16714  0.64143  0.26520  1.0000
  O   O66       1.0  0.16703  0.64162  0.76515  1.0000
  O   O67       1.0  0.66703  0.14142  0.26518  1.0000
  O   O68       1.0  0.66712  0.14160  0.76515  1.0000
  O   O69       1.0  0.50032  0.64148  0.26512  1.0000
  O   O70       1.0  0.50063  0.64136  0.76517  1.0000
  O   O71       1.0  0.83383  0.64155  0.26519  1.0000
  O   O72       1.0  0.83390  0.64154  0.76518  1.0000
  O   O73       1.0  0.16723  0.44252  0.06878  1.0000
  O   O74       1.0  0.16723  0.44255  0.56882  1.0000
  O   O75       1.0  0.50029  0.44248  0.06880  1.0000
  O   O76       1.0  0.50053  0.44247  0.56882  1.0000
  O   O77       1.0  0.33380  0.94258  0.06886  1.0000
  O   O78       1.0  0.33394  0.94256  0.56894  1.0000
  O   O79       1.0  0.83362  0.44252  0.06886  1.0000
  O   O80       1.0  0.83389  0.44253  0.56886  1.0000
  O   O81       1.0  0.66694  0.94248  0.06881  1.0000
  O   O82       1.0  0.66707  0.94245  0.56879  1.0000
  O   O83       1.0  0.00039  0.94254  0.06889  1.0000
  O   O84       1.0  0.00052  0.94260  0.56890  1.0000
  O   O85       1.0  0.00039  0.05857  0.43188  1.0000
  O   O86       1.0  0.00047  0.05858  0.93189  1.0000
  O   O87       1.0  0.33376  0.05858  0.43199  1.0000
  O   O88       1.0  0.33365  0.05862  0.93190  1.0000
  O   O89       1.0  0.16699  0.55857  0.43191  1.0000
  O   O90       1.0  0.16721  0.55860  0.93186  1.0000
  O   O91       1.0  0.66731  0.05859  0.43192  1.0000
  O   O92       1.0  0.66732  0.05854  0.93183  1.0000
  O   O93       1.0  0.50036  0.55856  0.43186  1.0000
  O   O94       1.0  0.50062  0.55851  0.93191  1.0000
  O   O95       1.0  0.83382  0.55852  0.43186  1.0000
  O   O96       1.0  0.83372  0.55859  0.93192  1.0000
