data_image0
_chemical_formula_structural       Zr32O64
_chemical_formula_sum              "Zr32 O64"
_cell_length_a       10.3051
_cell_length_b       10.4523
_cell_length_c       10.6556
_cell_angle_alpha    89.9977
_cell_angle_beta     99.3537
_cell_angle_gamma    90.0017

_space_group_name_H-M_alt    "P 1"
_space_group_IT_number       1

loop_
  _space_group_symop_operation_xyz
  'x, y, z'

loop_
  _atom_site_type_symbol
  _atom_site_label
  _atom_site_symmetry_multiplicity
  _atom_site_fract_x
  _atom_site_fract_y
  _atom_site_fract_z
  _atom_site_occupancy
  Zr  Zr1       1.0  0.36241  0.47973  0.39572  1.0000
  Zr  Zr2       1.0  0.36226  0.47963  0.89556  1.0000
  Zr  Zr3       1.0  0.36245  0.97976  0.39560  1.0000
  Zr  Zr4       1.0  0.36233  0.97963  0.89564  1.0000
  Zr  Zr5       1.0  0.86239  0.47965  0.39560  1.0000
  Zr  Zr6       1.0  0.86236  0.47969  0.89573  1.0000
  Zr  Zr7       1.0  0.86242  0.97978  0.39566  1.0000
  Zr  Zr8       1.0  0.86241  0.97961  0.89572  1.0000
  Zr  Zr9       1.0  0.36233  0.27118  0.14567  1.0000
  Zr  Zr10      1.0  0.36241  0.27115  0.64566  1.0000
  Zr  Zr11      1.0  0.36247  0.77111  0.14573  1.0000
  Zr  Zr12      1.0  0.36242  0.77121  0.64566  1.0000
  Zr  Zr13      1.0  0.86239  0.27117  0.14555  1.0000
  Zr  Zr14      1.0  0.86222  0.27119  0.64568  1.0000
  Zr  Zr15      1.0  0.86239  0.77116  0.14571  1.0000
  Zr  Zr16      1.0  0.86238  0.77121  0.64571  1.0000
  Zr  Zr17      1.0  0.13864  0.22973  0.35539  1.0000
  Zr  Zr18      1.0  0.13856  0.22965  0.85535  1.0000
  Zr  Zr19      1.0  0.13862  0.72974  0.35538  1.0000
  Zr  Zr20      1.0  0.13863  0.72963  0.85539  1.0000
  Zr  Zr21      1.0  0.63867  0.22976  0.35534  1.0000
  Zr  Zr22      1.0  0.63857  0.22960  0.85537  1.0000
  Zr  Zr23      1.0  0.63872  0.72969  0.35552  1.0000
  Zr  Zr24      1.0  0.63862  0.72968  0.85547  1.0000
  Zr  Zr25      1.0  0.13865  0.02114  0.10535  1.0000
  Zr  Zr26      1.0  0.13865  0.02120  0.60537  1.0000
  Zr  Zr27      1.0  0.13868  0.52122  0.10543  1.0000
  Zr  Zr28      1.0  0.13853  0.52115  0.60533  1.0000
  Zr  Zr29      1.0  0.63860  0.02116  0.10546  1.0000
  Zr  Zr30      1.0  0.63869  0.02114  0.60536  1.0000
  Zr  Zr31      1.0  0.63853  0.52112  0.10537  1.0000
  Zr  Zr32      1.0  0.63865  0.52123  0.60549  1.0000
  O   O1        1.0  0.03539  0.08341  0.42237  1.0000
  O   O2        1.0  0.03523  0.08341  0.92234  1.0000
  O   O3        1.0  0.03520  0.58350  0.42234  1.0000
  O   O4        1.0  0.03521  0.58352  0.92255  1.0000
  O   O5        1.0  0.53544  0.08340  0.42233  1.0000
  O   O6        1.0  0.53525  0.08342  0.92256  1.0000
  O   O7        1.0  0.53522  0.58363  0.42267  1.0000
  O   O8        1.0  0.53523  0.58335  0.92237  1.0000
  O   O9        1.0  0.03527  0.16740  0.17235  1.0000
  O   O10       1.0  0.03525  0.16749  0.67236  1.0000
  O   O11       1.0  0.03540  0.66747  0.17241  1.0000
  O   O12       1.0  0.03520  0.66737  0.67250  1.0000
  O   O13       1.0  0.53526  0.16745  0.17240  1.0000
  O   O14       1.0  0.53533  0.16734  0.67237  1.0000
  O   O15       1.0  0.53530  0.66723  0.17258  1.0000
  O   O16       1.0  0.53537  0.66756  0.67244  1.0000
  O   O17       1.0  0.27578  0.12902  0.01116  1.0000
  O   O18       1.0  0.27584  0.12917  0.51118  1.0000
  O   O19       1.0  0.27591  0.62903  0.01124  1.0000
  O   O20       1.0  0.27567  0.62914  0.51119  1.0000
  O   O21       1.0  0.77571  0.12898  0.01116  1.0000
  O   O22       1.0  0.77590  0.12917  0.51123  1.0000
  O   O23       1.0  0.77577  0.62902  0.01135  1.0000
  O   O24       1.0  0.77586  0.62908  0.51129  1.0000
  O   O25       1.0  0.22526  0.37916  0.23985  1.0000
  O   O26       1.0  0.22518  0.37907  0.73980  1.0000
  O   O27       1.0  0.22538  0.87918  0.23985  1.0000
  O   O28       1.0  0.22515  0.87905  0.73981  1.0000
  O   O29       1.0  0.72522  0.37913  0.23984  1.0000
  O   O30       1.0  0.72511  0.37913  0.73993  1.0000
  O   O31       1.0  0.72531  0.87913  0.24002  1.0000
  O   O32       1.0  0.72520  0.87916  0.73998  1.0000
  O   O33       1.0  0.27584  0.12181  0.26121  1.0000
  O   O34       1.0  0.27580  0.12169  0.76120  1.0000
  O   O35       1.0  0.27588  0.62184  0.26130  1.0000
  O   O36       1.0  0.27572  0.62178  0.76116  1.0000
  O   O37       1.0  0.77585  0.12183  0.26118  1.0000
  O   O38       1.0  0.77581  0.12176  0.76117  1.0000
  O   O39       1.0  0.77585  0.62173  0.26126  1.0000
  O   O40       1.0  0.77578  0.62184  0.76128  1.0000
  O   O41       1.0  0.22509  0.37182  0.48984  1.0000
  O   O42       1.0  0.22513  0.37174  0.98985  1.0000
  O   O43       1.0  0.22526  0.87188  0.48981  1.0000
  O   O44       1.0  0.22526  0.87170  0.98986  1.0000
  O   O45       1.0  0.72504  0.37180  0.48990  1.0000
  O   O46       1.0  0.72521  0.37168  0.98988  1.0000
  O   O47       1.0  0.72527  0.87178  0.48995  1.0000
  O   O48       1.0  0.72522  0.87166  0.99000  1.0000
  O   O49       1.0  0.46584  0.33366  0.32852  1.0000
  O   O50       1.0  0.46562  0.33338  0.82854  1.0000
  O   O51       1.0  0.46589  0.83353  0.32863  1.0000
  O   O52       1.0  0.46569  0.83341  0.82869  1.0000
  O   O53       1.0  0.96578  0.33345  0.32854  1.0000
  O   O54       1.0  0.96567  0.33345  0.82870  1.0000
  O   O55       1.0  0.96588  0.83369  0.32841  1.0000
  O   O56       1.0  0.96574  0.83336  0.82866  1.0000
  O   O57       1.0  0.46562  0.41736  0.07849  1.0000
  O   O58       1.0  0.46565  0.41749  0.57874  1.0000
  O   O59       1.0  0.46587  0.91719  0.07862  1.0000
  O   O60       1.0  0.46576  0.91747  0.57866  1.0000
  O   O61       1.0  0.96572  0.41748  0.07864  1.0000
  O   O62       1.0  0.96567  0.41732  0.57853  1.0000
  O   O63       1.0  0.96578  0.91732  0.07855  1.0000
  O   O64       1.0  0.96586  0.91730  0.57856  1.0000
