data_image0
_chemical_formula_structural       K72O72
_chemical_formula_sum              "K72 O72"
_cell_length_a       14.5158
_cell_length_b       14.5183
_cell_length_c       12.9112
_cell_angle_alpha    89.9924
_cell_angle_beta     90.0121
_cell_angle_gamma    92.211

_space_group_name_H-M_alt    "P 1"
_space_group_IT_number       1

loop_
  _space_group_symop_operation_xyz
  'x, y, z'

loop_
  _atom_site_type_symbol
  _atom_site_label
  _atom_site_symmetry_multiplicity
  _atom_site_fract_x
  _atom_site_fract_y
  _atom_site_fract_z
  _atom_site_occupancy
  K   K1        1.0  0.30331  0.19745  0.37531  1.0000
  K   K2        1.0  0.30325  0.19737  0.87547  1.0000
  K   K3        1.0  0.30312  0.53073  0.37544  1.0000
  K   K4        1.0  0.30318  0.53076  0.87541  1.0000
  K   K5        1.0  0.30329  0.86402  0.37541  1.0000
  K   K6        1.0  0.30338  0.86401  0.87543  1.0000
  K   K7        1.0  0.63662  0.19741  0.37532  1.0000
  K   K8        1.0  0.63661  0.19738  0.87542  1.0000
  K   K9        1.0  0.63661  0.53056  0.37522  1.0000
  K   K10       1.0  0.63673  0.53057  0.87559  1.0000
  K   K11       1.0  0.63681  0.86412  0.37533  1.0000
  K   K12       1.0  0.63670  0.86400  0.87536  1.0000
  K   K13       1.0  0.96986  0.19722  0.37547  1.0000
  K   K14       1.0  0.97010  0.19747  0.87538  1.0000
  K   K15       1.0  0.97005  0.53065  0.37531  1.0000
  K   K16       1.0  0.97001  0.53074  0.87543  1.0000
  K   K17       1.0  0.97000  0.86388  0.37542  1.0000
  K   K18       1.0  0.96997  0.86420  0.87521  1.0000
  K   K19       1.0  0.19723  0.30328  0.12534  1.0000
  K   K20       1.0  0.19736  0.30328  0.62543  1.0000
  K   K21       1.0  0.19739  0.63664  0.12555  1.0000
  K   K22       1.0  0.19738  0.63666  0.62539  1.0000
  K   K23       1.0  0.19741  0.96983  0.12531  1.0000
  K   K24       1.0  0.19743  0.97008  0.62544  1.0000
  K   K25       1.0  0.53066  0.30334  0.12551  1.0000
  K   K26       1.0  0.53066  0.30330  0.62536  1.0000
  K   K27       1.0  0.53082  0.63660  0.12557  1.0000
  K   K28       1.0  0.53075  0.63656  0.62542  1.0000
  K   K29       1.0  0.53072  0.96989  0.12538  1.0000
  K   K30       1.0  0.53082  0.97012  0.62551  1.0000
  K   K31       1.0  0.86410  0.30321  0.12524  1.0000
  K   K32       1.0  0.86407  0.30328  0.62548  1.0000
  K   K33       1.0  0.86422  0.63676  0.12550  1.0000
  K   K34       1.0  0.86407  0.63659  0.62543  1.0000
  K   K35       1.0  0.86404  0.96993  0.12542  1.0000
  K   K36       1.0  0.86420  0.97010  0.62533  1.0000
  K   K37       1.0  0.03071  0.13651  0.12541  1.0000
  K   K38       1.0  0.03084  0.13668  0.62527  1.0000
  K   K39       1.0  0.03067  0.47000  0.12533  1.0000
  K   K40       1.0  0.03066  0.46987  0.62538  1.0000
  K   K41       1.0  0.03081  0.80329  0.12522  1.0000
  K   K42       1.0  0.03089  0.80320  0.62531  1.0000
  K   K43       1.0  0.36403  0.13661  0.12538  1.0000
  K   K44       1.0  0.36395  0.13674  0.62541  1.0000
  K   K45       1.0  0.36397  0.46997  0.12538  1.0000
  K   K46       1.0  0.36393  0.46992  0.62553  1.0000
  K   K47       1.0  0.36418  0.80308  0.12560  1.0000
  K   K48       1.0  0.36426  0.80343  0.62531  1.0000
  K   K49       1.0  0.69730  0.13654  0.12551  1.0000
  K   K50       1.0  0.69735  0.13672  0.62536  1.0000
  K   K51       1.0  0.69752  0.46985  0.12537  1.0000
  K   K52       1.0  0.69732  0.47003  0.62525  1.0000
  K   K53       1.0  0.69745  0.80317  0.12537  1.0000
  K   K54       1.0  0.69735  0.80313  0.62522  1.0000
  K   K55       1.0  0.13667  0.03060  0.37512  1.0000
  K   K56       1.0  0.13661  0.03076  0.87536  1.0000
  K   K57       1.0  0.13649  0.36399  0.37518  1.0000
  K   K58       1.0  0.13661  0.36414  0.87545  1.0000
  K   K59       1.0  0.13660  0.69741  0.37550  1.0000
  K   K60       1.0  0.13673  0.69751  0.87539  1.0000
  K   K61       1.0  0.46981  0.03057  0.37534  1.0000
  K   K62       1.0  0.46987  0.03062  0.87549  1.0000
  K   K63       1.0  0.46981  0.36415  0.37543  1.0000
  K   K64       1.0  0.46984  0.36408  0.87536  1.0000
  K   K65       1.0  0.47008  0.69730  0.37544  1.0000
  K   K66       1.0  0.46992  0.69733  0.87558  1.0000
  K   K67       1.0  0.80328  0.03077  0.37528  1.0000
  K   K68       1.0  0.80327  0.03067  0.87540  1.0000
  K   K69       1.0  0.80330  0.36417  0.37532  1.0000
  K   K70       1.0  0.80320  0.36398  0.87537  1.0000
  K   K71       1.0  0.80338  0.69721  0.37532  1.0000
  K   K72       1.0  0.80341  0.69751  0.87552  1.0000
  O   O1        1.0  0.19667  0.13736  0.21542  1.0000
  O   O2        1.0  0.19654  0.13742  0.71555  1.0000
  O   O3        1.0  0.19652  0.47080  0.21543  1.0000
  O   O4        1.0  0.19656  0.47073  0.71543  1.0000
  O   O5        1.0  0.19664  0.80387  0.21535  1.0000
  O   O6        1.0  0.19679  0.80411  0.71536  1.0000
  O   O7        1.0  0.53001  0.13740  0.21540  1.0000
  O   O8        1.0  0.52996  0.13742  0.71554  1.0000
  O   O9        1.0  0.52982  0.47081  0.21543  1.0000
  O   O10       1.0  0.52989  0.47065  0.71554  1.0000
  O   O11       1.0  0.53018  0.80411  0.21549  1.0000
  O   O12       1.0  0.53012  0.80405  0.71546  1.0000
  O   O13       1.0  0.86333  0.13743  0.21538  1.0000
  O   O14       1.0  0.86335  0.13731  0.71544  1.0000
  O   O15       1.0  0.86345  0.47081  0.21520  1.0000
  O   O16       1.0  0.86324  0.47065  0.71549  1.0000
  O   O17       1.0  0.86348  0.80409  0.21545  1.0000
  O   O18       1.0  0.86338  0.80419  0.71522  1.0000
  O   O19       1.0  0.30393  0.02993  0.46548  1.0000
  O   O20       1.0  0.30399  0.02982  0.96551  1.0000
  O   O21       1.0  0.30392  0.36334  0.46554  1.0000
  O   O22       1.0  0.30396  0.36330  0.96539  1.0000
  O   O23       1.0  0.30410  0.69671  0.46549  1.0000
  O   O24       1.0  0.30402  0.69659  0.96554  1.0000
  O   O25       1.0  0.63737  0.03003  0.46540  1.0000
  O   O26       1.0  0.63735  0.02992  0.96542  1.0000
  O   O27       1.0  0.63730  0.36330  0.46531  1.0000
  O   O28       1.0  0.63728  0.36330  0.96546  1.0000
  O   O29       1.0  0.63740  0.69648  0.46521  1.0000
  O   O30       1.0  0.63738  0.69647  0.96545  1.0000
  O   O31       1.0  0.97083  0.02985  0.46529  1.0000
  O   O32       1.0  0.97065  0.03001  0.96543  1.0000
  O   O33       1.0  0.97054  0.36312  0.46538  1.0000
  O   O34       1.0  0.97077  0.36325  0.96539  1.0000
  O   O35       1.0  0.97078  0.69652  0.46543  1.0000
  O   O36       1.0  0.97083  0.69674  0.96534  1.0000
  O   O37       1.0  0.13731  0.19659  0.28541  1.0000
  O   O38       1.0  0.13744  0.19684  0.78548  1.0000
  O   O39       1.0  0.13728  0.53004  0.28539  1.0000
  O   O40       1.0  0.13734  0.53009  0.78528  1.0000
  O   O41       1.0  0.13742  0.86323  0.28521  1.0000
  O   O42       1.0  0.13751  0.86333  0.78528  1.0000
  O   O43       1.0  0.47064  0.19650  0.28541  1.0000
  O   O44       1.0  0.47062  0.19655  0.78553  1.0000
  O   O45       1.0  0.47055  0.53007  0.28536  1.0000
  O   O46       1.0  0.47080  0.53006  0.78552  1.0000
  O   O47       1.0  0.47084  0.86322  0.28545  1.0000
  O   O48       1.0  0.47081  0.86325  0.78544  1.0000
  O   O49       1.0  0.80405  0.19673  0.28529  1.0000
  O   O50       1.0  0.80408  0.19659  0.78544  1.0000
  O   O51       1.0  0.80412  0.53001  0.28516  1.0000
  O   O52       1.0  0.80407  0.52997  0.78545  1.0000
  O   O53       1.0  0.80404  0.86320  0.28542  1.0000
  O   O54       1.0  0.80395  0.86335  0.78515  1.0000
  O   O55       1.0  0.03010  0.30401  0.03537  1.0000
  O   O56       1.0  0.03002  0.30402  0.53531  1.0000
  O   O57       1.0  0.03008  0.63744  0.03527  1.0000
  O   O58       1.0  0.02995  0.63715  0.53540  1.0000
  O   O59       1.0  0.02993  0.97067  0.03536  1.0000
  O   O60       1.0  0.03017  0.97068  0.53530  1.0000
  O   O61       1.0  0.36326  0.30408  0.03534  1.0000
  O   O62       1.0  0.36324  0.30409  0.53544  1.0000
  O   O63       1.0  0.36332  0.63722  0.03546  1.0000
  O   O64       1.0  0.36327  0.63737  0.53550  1.0000
  O   O65       1.0  0.36332  0.97057  0.03549  1.0000
  O   O66       1.0  0.36340  0.97087  0.53545  1.0000
  O   O67       1.0  0.69646  0.30385  0.03535  1.0000
  O   O68       1.0  0.69652  0.30401  0.53530  1.0000
  O   O69       1.0  0.69677  0.63730  0.03544  1.0000
  O   O70       1.0  0.69664  0.63721  0.53519  1.0000
  O   O71       1.0  0.69666  0.97064  0.03535  1.0000
  O   O72       1.0  0.69671  0.97083  0.53535  1.0000
