data_image0
_chemical_formula_structural       Sr8Nb16Bi16O72
_chemical_formula_sum              "Sr8 Nb16 Bi16 O72"
_cell_length_a       11.1828
_cell_length_b       12.8354
_cell_length_c       11.2063
_cell_angle_alpha    90.0016
_cell_angle_beta     89.9998
_cell_angle_gamma    102.58

_space_group_name_H-M_alt    "P 1"
_space_group_IT_number       1

loop_
  _space_group_symop_operation_xyz
  'x, y, z'

loop_
  _atom_site_type_symbol
  _atom_site_label
  _atom_site_symmetry_multiplicity
  _atom_site_fract_x
  _atom_site_fract_y
  _atom_site_fract_z
  _atom_site_occupancy
  Sr  Sr1       1.0  0.12626  0.00041  0.00886  1.0000
  Sr  Sr2       1.0  0.12626  0.00039  0.50889  1.0000
  Sr  Sr3       1.0  0.62627  0.00039  0.00887  1.0000
  Sr  Sr4       1.0  0.62631  0.00040  0.50891  1.0000
  Sr  Sr5       1.0  0.37484  0.00047  0.25884  1.0000
  Sr  Sr6       1.0  0.37484  0.00042  0.75886  1.0000
  Sr  Sr7       1.0  0.87483  0.00041  0.25887  1.0000
  Sr  Sr8       1.0  0.87480  0.00043  0.75884  1.0000
  Nb  Nb1       1.0  0.33379  0.83210  0.01319  1.0000
  Nb  Nb2       1.0  0.33381  0.83210  0.51317  1.0000
  Nb  Nb3       1.0  0.83384  0.83209  0.01317  1.0000
  Nb  Nb4       1.0  0.83379  0.83210  0.51317  1.0000
  Nb  Nb5       1.0  0.08312  0.83211  0.26316  1.0000
  Nb  Nb6       1.0  0.08312  0.83209  0.76316  1.0000
  Nb  Nb7       1.0  0.58311  0.83209  0.26318  1.0000
  Nb  Nb8       1.0  0.58309  0.83210  0.76320  1.0000
  Nb  Nb9       1.0  0.41793  0.16873  0.01318  1.0000
  Nb  Nb10      1.0  0.41796  0.16873  0.51316  1.0000
  Nb  Nb11      1.0  0.91793  0.16871  0.01318  1.0000
  Nb  Nb12      1.0  0.91797  0.16874  0.51321  1.0000
  Nb  Nb13      1.0  0.16727  0.16877  0.26320  1.0000
  Nb  Nb14      1.0  0.16727  0.16874  0.76321  1.0000
  Nb  Nb15      1.0  0.66727  0.16871  0.26320  1.0000
  Nb  Nb16      1.0  0.66728  0.16876  0.76323  1.0000
  Bi  Bi1       1.0  0.04190  0.59985  0.47303  1.0000
  Bi  Bi2       1.0  0.04188  0.59979  0.97307  1.0000
  Bi  Bi3       1.0  0.54186  0.59980  0.47307  1.0000
  Bi  Bi4       1.0  0.54191  0.59982  0.97306  1.0000
  Bi  Bi5       1.0  0.45921  0.40108  0.22309  1.0000
  Bi  Bi6       1.0  0.45926  0.40109  0.72312  1.0000
  Bi  Bi7       1.0  0.95920  0.40106  0.22308  1.0000
  Bi  Bi8       1.0  0.95924  0.40108  0.72306  1.0000
  Bi  Bi9       1.0  0.25891  0.59984  0.22307  1.0000
  Bi  Bi10      1.0  0.25892  0.59984  0.72306  1.0000
  Bi  Bi11      1.0  0.75887  0.59981  0.22308  1.0000
  Bi  Bi12      1.0  0.75890  0.59981  0.72309  1.0000
  Bi  Bi13      1.0  0.24222  0.40109  0.47309  1.0000
  Bi  Bi14      1.0  0.24222  0.40110  0.97309  1.0000
  Bi  Bi15      1.0  0.74219  0.40106  0.47310  1.0000
  Bi  Bi16      1.0  0.74220  0.40106  0.97309  1.0000
  O   O1        1.0  0.20565  0.86631  0.13934  1.0000
  O   O2        1.0  0.20562  0.86629  0.63935  1.0000
  O   O3        1.0  0.70564  0.86637  0.13933  1.0000
  O   O4        1.0  0.70563  0.86634  0.63934  1.0000
  O   O5        1.0  0.29541  0.13450  0.38937  1.0000
  O   O6        1.0  0.29538  0.13451  0.88938  1.0000
  O   O7        1.0  0.79536  0.13448  0.38941  1.0000
  O   O8        1.0  0.79539  0.13447  0.88935  1.0000
  O   O9        1.0  0.22842  0.86635  0.38936  1.0000
  O   O10       1.0  0.22840  0.86634  0.88933  1.0000
  O   O11       1.0  0.72839  0.86638  0.38937  1.0000
  O   O12       1.0  0.72841  0.86634  0.88935  1.0000
  O   O13       1.0  0.27271  0.13448  0.13943  1.0000
  O   O14       1.0  0.27267  0.13449  0.63937  1.0000
  O   O15       1.0  0.77267  0.13448  0.13935  1.0000
  O   O16       1.0  0.77275  0.13447  0.63942  1.0000
  O   O17       1.0  0.44131  0.82764  0.16457  1.0000
  O   O18       1.0  0.44128  0.82764  0.66454  1.0000
  O   O19       1.0  0.94133  0.82768  0.16452  1.0000
  O   O20       1.0  0.94133  0.82762  0.66452  1.0000
  O   O21       1.0  0.05972  0.17317  0.41453  1.0000
  O   O22       1.0  0.05970  0.17313  0.91447  1.0000
  O   O23       1.0  0.55974  0.17314  0.41450  1.0000
  O   O24       1.0  0.55971  0.17313  0.91450  1.0000
  O   O25       1.0  0.47341  0.82767  0.41453  1.0000
  O   O26       1.0  0.47340  0.82770  0.91455  1.0000
  O   O27       1.0  0.97335  0.82768  0.41453  1.0000
  O   O28       1.0  0.97339  0.82769  0.91452  1.0000
  O   O29       1.0  0.02772  0.17318  0.16453  1.0000
  O   O30       1.0  0.02771  0.17309  0.66454  1.0000
  O   O31       1.0  0.52770  0.17310  0.16450  1.0000
  O   O32       1.0  0.52774  0.17314  0.66446  1.0000
  O   O33       1.0  0.36712  0.50244  0.11660  1.0000
  O   O34       1.0  0.36712  0.50242  0.61660  1.0000
  O   O35       1.0  0.86715  0.50246  0.11660  1.0000
  O   O36       1.0  0.86715  0.50246  0.61659  1.0000
  O   O37       1.0  0.13393  0.49839  0.36659  1.0000
  O   O38       1.0  0.13395  0.49839  0.86657  1.0000
  O   O39       1.0  0.63398  0.49843  0.36657  1.0000
  O   O40       1.0  0.63397  0.49841  0.86659  1.0000
  O   O41       1.0  0.09938  0.00043  0.27905  1.0000
  O   O42       1.0  0.09941  0.00040  0.77912  1.0000
  O   O43       1.0  0.59943  0.00042  0.27905  1.0000
  O   O44       1.0  0.59940  0.00042  0.77908  1.0000
  O   O45       1.0  0.40165  0.00039  0.02903  1.0000
  O   O46       1.0  0.40163  0.00037  0.52905  1.0000
  O   O47       1.0  0.90164  0.00041  0.02906  1.0000
  O   O48       1.0  0.90166  0.00039  0.52907  1.0000
  O   O49       1.0  0.08364  0.68495  0.27884  1.0000
  O   O50       1.0  0.08365  0.68492  0.77883  1.0000
  O   O51       1.0  0.58369  0.68498  0.27886  1.0000
  O   O52       1.0  0.58366  0.68493  0.77890  1.0000
  O   O53       1.0  0.41741  0.31590  0.02882  1.0000
  O   O54       1.0  0.41748  0.31589  0.52882  1.0000
  O   O55       1.0  0.91748  0.31589  0.02886  1.0000
  O   O56       1.0  0.91742  0.31590  0.52883  1.0000
  O   O57       1.0  0.25969  0.68495  0.02884  1.0000
  O   O58       1.0  0.25971  0.68495  0.52888  1.0000
  O   O59       1.0  0.75974  0.68495  0.02885  1.0000
  O   O60       1.0  0.75973  0.68494  0.52883  1.0000
  O   O61       1.0  0.24140  0.31592  0.27888  1.0000
  O   O62       1.0  0.24139  0.31588  0.77890  1.0000
  O   O63       1.0  0.74141  0.31589  0.27880  1.0000
  O   O64       1.0  0.74137  0.31589  0.77886  1.0000
  O   O65       1.0  0.11611  0.49839  0.11656  1.0000
  O   O66       1.0  0.11610  0.49842  0.61658  1.0000
  O   O67       1.0  0.61613  0.49844  0.11659  1.0000
  O   O68       1.0  0.61613  0.49843  0.61658  1.0000
  O   O69       1.0  0.38497  0.50245  0.36662  1.0000
  O   O70       1.0  0.38498  0.50246  0.86663  1.0000
  O   O71       1.0  0.88497  0.50245  0.36659  1.0000
  O   O72       1.0  0.88499  0.50244  0.86657  1.0000
