data_image0
_chemical_formula_structural       Bi64O96
_chemical_formula_sum              "Bi64 O96"
_cell_length_a       11.7512
_cell_length_b       13.7454
_cell_length_c       16.2244
_cell_angle_alpha    89.9974
_cell_angle_beta     89.9956
_cell_angle_gamma    90.8284

_space_group_name_H-M_alt    "P 1"
_space_group_IT_number       1

loop_
  _space_group_symop_operation_xyz
  'x, y, z'

loop_
  _atom_site_type_symbol
  _atom_site_label
  _atom_site_symmetry_multiplicity
  _atom_site_fract_x
  _atom_site_fract_y
  _atom_site_fract_z
  _atom_site_occupancy
  Bi  Bi1       1.0  0.04934  0.13860  0.22838  1.0000
  Bi  Bi2       1.0  0.04946  0.13858  0.72831  1.0000
  Bi  Bi3       1.0  0.54951  0.13859  0.22829  1.0000
  Bi  Bi4       1.0  0.54930  0.13856  0.72838  1.0000
  Bi  Bi5       1.0  0.29935  0.63862  0.22832  1.0000
  Bi  Bi6       1.0  0.29933  0.63855  0.72829  1.0000
  Bi  Bi7       1.0  0.79933  0.63858  0.22843  1.0000
  Bi  Bi8       1.0  0.79942  0.63861  0.72822  1.0000
  Bi  Bi9       1.0  0.07642  0.11229  0.47830  1.0000
  Bi  Bi10      1.0  0.07648  0.11210  0.97834  1.0000
  Bi  Bi11      1.0  0.57632  0.11215  0.47829  1.0000
  Bi  Bi12      1.0  0.57642  0.11219  0.97844  1.0000
  Bi  Bi13      1.0  0.32630  0.61206  0.47829  1.0000
  Bi  Bi14      1.0  0.32656  0.61209  0.97835  1.0000
  Bi  Bi15      1.0  0.82655  0.61216  0.47835  1.0000
  Bi  Bi16      1.0  0.82642  0.61202  0.97829  1.0000
  Bi  Bi17      1.0  0.20142  0.36216  0.27228  1.0000
  Bi  Bi18      1.0  0.20151  0.36211  0.77228  1.0000
  Bi  Bi19      1.0  0.70147  0.36213  0.27221  1.0000
  Bi  Bi20      1.0  0.70148  0.36209  0.77222  1.0000
  Bi  Bi21      1.0  0.45150  0.86214  0.27228  1.0000
  Bi  Bi22      1.0  0.45151  0.86211  0.77231  1.0000
  Bi  Bi23      1.0  0.95158  0.86211  0.27236  1.0000
  Bi  Bi24      1.0  0.95147  0.86207  0.77226  1.0000
  Bi  Bi25      1.0  0.17441  0.38860  0.02232  1.0000
  Bi  Bi26      1.0  0.17430  0.38854  0.52220  1.0000
  Bi  Bi27      1.0  0.67439  0.38856  0.02229  1.0000
  Bi  Bi28      1.0  0.67445  0.38863  0.52229  1.0000
  Bi  Bi29      1.0  0.42442  0.88858  0.02229  1.0000
  Bi  Bi30      1.0  0.42449  0.88856  0.52224  1.0000
  Bi  Bi31      1.0  0.92453  0.88855  0.02225  1.0000
  Bi  Bi32      1.0  0.92442  0.88868  0.52225  1.0000
  Bi  Bi33      1.0  0.95616  0.43407  0.15682  1.0000
  Bi  Bi34      1.0  0.95619  0.43391  0.65672  1.0000
  Bi  Bi35      1.0  0.45613  0.43403  0.15677  1.0000
  Bi  Bi36      1.0  0.45618  0.43393  0.65677  1.0000
  Bi  Bi37      1.0  0.20619  0.93399  0.15679  1.0000
  Bi  Bi38      1.0  0.20626  0.93400  0.65681  1.0000
  Bi  Bi39      1.0  0.70632  0.93397  0.15688  1.0000
  Bi  Bi40      1.0  0.70614  0.93404  0.65679  1.0000
  Bi  Bi41      1.0  0.91956  0.31675  0.40675  1.0000
  Bi  Bi42      1.0  0.91973  0.31670  0.90679  1.0000
  Bi  Bi43      1.0  0.41969  0.31675  0.40673  1.0000
  Bi  Bi44      1.0  0.41970  0.31674  0.90686  1.0000
  Bi  Bi45      1.0  0.16972  0.81680  0.40683  1.0000
  Bi  Bi46      1.0  0.16975  0.81662  0.90677  1.0000
  Bi  Bi47      1.0  0.66976  0.81672  0.40675  1.0000
  Bi  Bi48      1.0  0.66968  0.81675  0.90683  1.0000
  Bi  Bi49      1.0  0.29474  0.06672  0.34378  1.0000
  Bi  Bi50      1.0  0.29471  0.06669  0.84386  1.0000
  Bi  Bi51      1.0  0.79465  0.06676  0.34389  1.0000
  Bi  Bi52      1.0  0.79464  0.06675  0.84382  1.0000
  Bi  Bi53      1.0  0.54458  0.56672  0.34388  1.0000
  Bi  Bi54      1.0  0.54470  0.56672  0.84376  1.0000
  Bi  Bi55      1.0  0.04470  0.56673  0.34390  1.0000
  Bi  Bi56      1.0  0.04460  0.56664  0.84374  1.0000
  Bi  Bi57      1.0  0.33110  0.18403  0.09389  1.0000
  Bi  Bi58      1.0  0.33115  0.18400  0.59379  1.0000
  Bi  Bi59      1.0  0.83122  0.18400  0.09384  1.0000
  Bi  Bi60      1.0  0.83098  0.18392  0.59378  1.0000
  Bi  Bi61      1.0  0.58127  0.68396  0.09383  1.0000
  Bi  Bi62      1.0  0.58113  0.68397  0.59377  1.0000
  Bi  Bi63      1.0  0.08120  0.68395  0.09382  1.0000
  Bi  Bi64      1.0  0.08114  0.68403  0.59384  1.0000
  O   O1        1.0  0.36806  0.00615  0.23418  1.0000
  O   O2        1.0  0.36817  0.00614  0.73433  1.0000
  O   O3        1.0  0.86810  0.00611  0.23438  1.0000
  O   O4        1.0  0.86787  0.00606  0.73425  1.0000
  O   O5        1.0  0.61795  0.50617  0.23426  1.0000
  O   O6        1.0  0.61798  0.50614  0.73419  1.0000
  O   O7        1.0  0.11792  0.50615  0.23430  1.0000
  O   O8        1.0  0.11796  0.50610  0.73420  1.0000
  O   O9        1.0  0.25789  0.24463  0.48421  1.0000
  O   O10       1.0  0.25787  0.24464  0.98426  1.0000
  O   O11       1.0  0.75780  0.24459  0.48418  1.0000
  O   O12       1.0  0.75790  0.24461  0.98427  1.0000
  O   O13       1.0  0.50806  0.74461  0.48415  1.0000
  O   O14       1.0  0.50782  0.74462  0.98426  1.0000
  O   O15       1.0  0.00792  0.74464  0.48428  1.0000
  O   O16       1.0  0.00798  0.74455  0.98421  1.0000
  O   O17       1.0  0.88284  0.49460  0.26643  1.0000
  O   O18       1.0  0.88284  0.49452  0.76625  1.0000
  O   O19       1.0  0.38286  0.49463  0.26639  1.0000
  O   O20       1.0  0.38283  0.49458  0.76629  1.0000
  O   O21       1.0  0.13291  0.99464  0.26639  1.0000
  O   O22       1.0  0.13295  0.99463  0.76636  1.0000
  O   O23       1.0  0.63295  0.99461  0.26640  1.0000
  O   O24       1.0  0.63274  0.99456  0.76639  1.0000
  O   O25       1.0  0.99298  0.25608  0.01635  1.0000
  O   O26       1.0  0.99295  0.25622  0.51634  1.0000
  O   O27       1.0  0.49306  0.25619  0.01645  1.0000
  O   O28       1.0  0.49288  0.25618  0.51637  1.0000
  O   O29       1.0  0.24308  0.75614  0.01635  1.0000
  O   O30       1.0  0.24301  0.75616  0.51642  1.0000
  O   O31       1.0  0.74293  0.75608  0.01639  1.0000
  O   O32       1.0  0.74314  0.75622  0.51634  1.0000
  O   O33       1.0  0.03872  0.31221  0.22489  1.0000
  O   O34       1.0  0.03877  0.31218  0.72486  1.0000
  O   O35       1.0  0.53871  0.31222  0.22484  1.0000
  O   O36       1.0  0.53876  0.31220  0.72484  1.0000
  O   O37       1.0  0.28877  0.81223  0.22482  1.0000
  O   O38       1.0  0.28862  0.81229  0.72502  1.0000
  O   O39       1.0  0.78878  0.81222  0.22499  1.0000
  O   O40       1.0  0.78879  0.81216  0.72476  1.0000
  O   O41       1.0  0.83726  0.43854  0.47501  1.0000
  O   O42       1.0  0.83712  0.43848  0.97492  1.0000
  O   O43       1.0  0.33701  0.43851  0.47475  1.0000
  O   O44       1.0  0.33723  0.43856  0.97498  1.0000
  O   O45       1.0  0.08721  0.93859  0.47486  1.0000
  O   O46       1.0  0.08725  0.93846  0.97487  1.0000
  O   O47       1.0  0.58724  0.93855  0.47484  1.0000
  O   O48       1.0  0.58712  0.93859  0.97490  1.0000
  O   O49       1.0  0.21217  0.18852  0.27573  1.0000
  O   O50       1.0  0.21204  0.18856  0.77587  1.0000
  O   O51       1.0  0.71230  0.18850  0.27559  1.0000
  O   O52       1.0  0.71213  0.18847  0.77566  1.0000
  O   O53       1.0  0.46207  0.68852  0.27570  1.0000
  O   O54       1.0  0.46210  0.68849  0.77563  1.0000
  O   O55       1.0  0.96211  0.68848  0.27584  1.0000
  O   O56       1.0  0.96219  0.68848  0.77559  1.0000
  O   O57       1.0  0.41359  0.06231  0.02571  1.0000
  O   O58       1.0  0.41356  0.06218  0.52559  1.0000
  O   O59       1.0  0.91376  0.06212  0.02583  1.0000
  O   O60       1.0  0.91364  0.06226  0.52555  1.0000
  O   O61       1.0  0.66366  0.56215  0.02567  1.0000
  O   O62       1.0  0.66386  0.56219  0.52581  1.0000
  O   O63       1.0  0.16383  0.56219  0.02584  1.0000
  O   O64       1.0  0.16349  0.56222  0.52558  1.0000
  O   O65       1.0  0.28830  0.35449  0.14848  1.0000
  O   O66       1.0  0.28837  0.35426  0.64857  1.0000
  O   O67       1.0  0.78842  0.35439  0.14851  1.0000
  O   O68       1.0  0.78845  0.35421  0.64852  1.0000
  O   O69       1.0  0.53861  0.85429  0.14852  1.0000
  O   O70       1.0  0.53836  0.85438  0.64850  1.0000
  O   O71       1.0  0.03853  0.85437  0.14860  1.0000
  O   O72       1.0  0.03855  0.85437  0.64855  1.0000
  O   O73       1.0  0.08746  0.39620  0.39851  1.0000
  O   O74       1.0  0.08748  0.39642  0.89855  1.0000
  O   O75       1.0  0.58748  0.39645  0.39858  1.0000
  O   O76       1.0  0.58748  0.39633  0.89855  1.0000
  O   O77       1.0  0.33756  0.89634  0.39850  1.0000
  O   O78       1.0  0.33747  0.89638  0.89854  1.0000
  O   O79       1.0  0.83758  0.89639  0.39853  1.0000
  O   O80       1.0  0.83756  0.89627  0.89853  1.0000
  O   O81       1.0  0.96237  0.14655  0.35206  1.0000
  O   O82       1.0  0.96236  0.14637  0.85209  1.0000
  O   O83       1.0  0.46253  0.14637  0.35207  1.0000
  O   O84       1.0  0.46245  0.14648  0.85215  1.0000
  O   O85       1.0  0.21246  0.64632  0.35207  1.0000
  O   O86       1.0  0.21244  0.64624  0.85206  1.0000
  O   O87       1.0  0.71237  0.64628  0.35212  1.0000
  O   O88       1.0  0.71242  0.64633  0.85204  1.0000
  O   O89       1.0  0.16340  0.10446  0.10207  1.0000
  O   O90       1.0  0.16328  0.10457  0.60207  1.0000
  O   O91       1.0  0.66341  0.10440  0.10214  1.0000
  O   O92       1.0  0.66320  0.10431  0.60208  1.0000
  O   O93       1.0  0.41344  0.60438  0.10207  1.0000
  O   O94       1.0  0.41337  0.60438  0.60201  1.0000
  O   O95       1.0  0.91338  0.60432  0.10206  1.0000
  O   O96       1.0  0.91338  0.60434  0.60207  1.0000
