data_image0
_chemical_formula_structural       Ba32Bi32O80
_chemical_formula_sum              "Ba32 Bi32 O80"
_cell_length_a       12.2205
_cell_length_b       14.8829
_cell_length_c       15.2277
_cell_angle_alpha    90
_cell_angle_beta     90
_cell_angle_gamma    100.029

_space_group_name_H-M_alt    "P 1"
_space_group_IT_number       1

loop_
  _space_group_symop_operation_xyz
  'x, y, z'

loop_
  _atom_site_type_symbol
  _atom_site_label
  _atom_site_symmetry_multiplicity
  _atom_site_fract_x
  _atom_site_fract_y
  _atom_site_fract_z
  _atom_site_occupancy
  Ba  Ba1       1.0  0.11312  0.43280  0.03826  1.0000
  Ba  Ba2       1.0  0.11290  0.43275  0.53831  1.0000
  Ba  Ba3       1.0  0.11317  0.93286  0.03829  1.0000
  Ba  Ba4       1.0  0.11323  0.93271  0.53830  1.0000
  Ba  Ba5       1.0  0.61297  0.43279  0.03843  1.0000
  Ba  Ba6       1.0  0.61310  0.43284  0.53840  1.0000
  Ba  Ba7       1.0  0.61293  0.93280  0.03839  1.0000
  Ba  Ba8       1.0  0.61319  0.93287  0.53828  1.0000
  Ba  Ba9       1.0  0.13789  0.06770  0.28830  1.0000
  Ba  Ba10      1.0  0.13782  0.06802  0.78825  1.0000
  Ba  Ba11      1.0  0.13779  0.56791  0.28833  1.0000
  Ba  Ba12      1.0  0.13789  0.56789  0.78835  1.0000
  Ba  Ba13      1.0  0.63789  0.06783  0.28833  1.0000
  Ba  Ba14      1.0  0.63792  0.06788  0.78830  1.0000
  Ba  Ba15      1.0  0.63777  0.56800  0.28839  1.0000
  Ba  Ba16      1.0  0.63794  0.56781  0.78833  1.0000
  Ba  Ba17      1.0  0.38802  0.06795  0.46240  1.0000
  Ba  Ba18      1.0  0.38788  0.06798  0.96230  1.0000
  Ba  Ba19      1.0  0.38777  0.56785  0.46238  1.0000
  Ba  Ba20      1.0  0.38781  0.56788  0.96230  1.0000
  Ba  Ba21      1.0  0.88796  0.06787  0.46239  1.0000
  Ba  Ba22      1.0  0.88788  0.06794  0.96242  1.0000
  Ba  Ba23      1.0  0.88775  0.56787  0.46233  1.0000
  Ba  Ba24      1.0  0.88788  0.56786  0.96238  1.0000
  Ba  Ba25      1.0  0.36304  0.43276  0.21238  1.0000
  Ba  Ba26      1.0  0.36309  0.43290  0.71236  1.0000
  Ba  Ba27      1.0  0.36310  0.93281  0.21239  1.0000
  Ba  Ba28      1.0  0.36311  0.93292  0.71225  1.0000
  Ba  Ba29      1.0  0.86297  0.43279  0.21240  1.0000
  Ba  Ba30      1.0  0.86308  0.43270  0.71239  1.0000
  Ba  Ba31      1.0  0.86305  0.93273  0.21237  1.0000
  Ba  Ba32      1.0  0.86304  0.93279  0.71241  1.0000
  Bi  Bi1       1.0  0.13799  0.18563  0.06112  1.0000
  Bi  Bi2       1.0  0.13800  0.18560  0.56099  1.0000
  Bi  Bi3       1.0  0.13800  0.68566  0.06109  1.0000
  Bi  Bi4       1.0  0.13800  0.68543  0.56112  1.0000
  Bi  Bi5       1.0  0.63785  0.18558  0.06114  1.0000
  Bi  Bi6       1.0  0.63794  0.18561  0.56112  1.0000
  Bi  Bi7       1.0  0.63787  0.68551  0.06113  1.0000
  Bi  Bi8       1.0  0.63794  0.68557  0.56114  1.0000
  Bi  Bi9       1.0  0.11288  0.31506  0.31105  1.0000
  Bi  Bi10      1.0  0.11297  0.31516  0.81110  1.0000
  Bi  Bi11      1.0  0.11293  0.81495  0.31107  1.0000
  Bi  Bi12      1.0  0.11302  0.81518  0.81103  1.0000
  Bi  Bi13      1.0  0.61299  0.31512  0.31118  1.0000
  Bi  Bi14      1.0  0.61304  0.31514  0.81109  1.0000
  Bi  Bi15      1.0  0.61301  0.81511  0.31115  1.0000
  Bi  Bi16      1.0  0.61297  0.81510  0.81116  1.0000
  Bi  Bi17      1.0  0.36303  0.31509  0.43964  1.0000
  Bi  Bi18      1.0  0.36307  0.31515  0.93951  1.0000
  Bi  Bi19      1.0  0.36303  0.81510  0.43950  1.0000
  Bi  Bi20      1.0  0.36296  0.81511  0.93957  1.0000
  Bi  Bi21      1.0  0.86283  0.31506  0.43961  1.0000
  Bi  Bi22      1.0  0.86292  0.31513  0.93967  1.0000
  Bi  Bi23      1.0  0.86307  0.81509  0.43970  1.0000
  Bi  Bi24      1.0  0.86298  0.81517  0.93966  1.0000
  Bi  Bi25      1.0  0.38794  0.18559  0.18965  1.0000
  Bi  Bi26      1.0  0.38795  0.18565  0.68957  1.0000
  Bi  Bi27      1.0  0.38792  0.68552  0.18959  1.0000
  Bi  Bi28      1.0  0.38808  0.68569  0.68961  1.0000
  Bi  Bi29      1.0  0.88797  0.18549  0.18965  1.0000
  Bi  Bi30      1.0  0.88793  0.18556  0.68950  1.0000
  Bi  Bi31      1.0  0.88780  0.68557  0.18962  1.0000
  Bi  Bi32      1.0  0.88793  0.68544  0.68959  1.0000
  O   O1        1.0  0.26832  0.09520  0.11772  1.0000
  O   O2        1.0  0.26823  0.09524  0.61767  1.0000
  O   O3        1.0  0.26815  0.59517  0.11770  1.0000
  O   O4        1.0  0.26836  0.59531  0.61777  1.0000
  O   O5        1.0  0.76835  0.09514  0.11772  1.0000
  O   O6        1.0  0.76822  0.09504  0.61772  1.0000
  O   O7        1.0  0.76820  0.59511  0.11775  1.0000
  O   O8        1.0  0.76820  0.59502  0.61773  1.0000
  O   O9        1.0  0.48269  0.40550  0.36775  1.0000
  O   O10       1.0  0.48267  0.40564  0.86764  1.0000
  O   O11       1.0  0.48271  0.90555  0.36770  1.0000
  O   O12       1.0  0.48263  0.90547  0.86761  1.0000
  O   O13       1.0  0.98262  0.40542  0.36768  1.0000
  O   O14       1.0  0.98264  0.40543  0.86768  1.0000
  O   O15       1.0  0.98279  0.90538  0.36771  1.0000
  O   O16       1.0  0.98263  0.90548  0.86755  1.0000
  O   O17       1.0  0.23265  0.40532  0.38303  1.0000
  O   O18       1.0  0.23271  0.40558  0.88292  1.0000
  O   O19       1.0  0.23263  0.90539  0.38290  1.0000
  O   O20       1.0  0.23269  0.90553  0.88299  1.0000
  O   O21       1.0  0.73273  0.40544  0.38312  1.0000
  O   O22       1.0  0.73272  0.40561  0.88301  1.0000
  O   O23       1.0  0.73274  0.90553  0.38302  1.0000
  O   O24       1.0  0.73261  0.90559  0.88302  1.0000
  O   O25       1.0  0.01837  0.09520  0.13307  1.0000
  O   O26       1.0  0.01834  0.09533  0.63308  1.0000
  O   O27       1.0  0.01825  0.59541  0.13305  1.0000
  O   O28       1.0  0.01833  0.59496  0.63292  1.0000
  O   O29       1.0  0.51827  0.09518  0.13308  1.0000
  O   O30       1.0  0.51826  0.09518  0.63292  1.0000
  O   O31       1.0  0.51823  0.59502  0.13296  1.0000
  O   O32       1.0  0.51820  0.59517  0.63299  1.0000
  O   O33       1.0  0.12329  0.40663  0.20690  1.0000
  O   O34       1.0  0.12322  0.40666  0.70685  1.0000
  O   O35       1.0  0.12320  0.90633  0.20673  1.0000
  O   O36       1.0  0.12363  0.90672  0.70680  1.0000
  O   O37       1.0  0.62365  0.40669  0.20700  1.0000
  O   O38       1.0  0.62319  0.40659  0.70683  1.0000
  O   O39       1.0  0.62342  0.90655  0.20683  1.0000
  O   O40       1.0  0.62348  0.90654  0.70685  1.0000
  O   O41       1.0  0.12750  0.09401  0.45684  1.0000
  O   O42       1.0  0.12770  0.09415  0.95687  1.0000
  O   O43       1.0  0.12786  0.59402  0.45682  1.0000
  O   O44       1.0  0.12765  0.59411  0.95690  1.0000
  O   O45       1.0  0.62752  0.09412  0.45688  1.0000
  O   O46       1.0  0.62741  0.09408  0.95692  1.0000
  O   O47       1.0  0.62766  0.59411  0.45686  1.0000
  O   O48       1.0  0.62759  0.59405  0.95688  1.0000
  O   O49       1.0  0.37777  0.09410  0.29391  1.0000
  O   O50       1.0  0.37779  0.09419  0.79380  1.0000
  O   O51       1.0  0.37761  0.59403  0.29383  1.0000
  O   O52       1.0  0.37782  0.59419  0.79387  1.0000
  O   O53       1.0  0.87773  0.09404  0.29391  1.0000
  O   O54       1.0  0.87758  0.09421  0.79385  1.0000
  O   O55       1.0  0.87753  0.59404  0.29384  1.0000
  O   O56       1.0  0.87787  0.59400  0.79385  1.0000
  O   O57       1.0  0.37338  0.40660  0.04379  1.0000
  O   O58       1.0  0.37334  0.40658  0.54385  1.0000
  O   O59       1.0  0.37322  0.90659  0.04384  1.0000
  O   O60       1.0  0.37342  0.90657  0.54377  1.0000
  O   O61       1.0  0.87351  0.40664  0.04389  1.0000
  O   O62       1.0  0.87333  0.40659  0.54378  1.0000
  O   O63       1.0  0.87355  0.90670  0.04388  1.0000
  O   O64       1.0  0.87348  0.90660  0.54393  1.0000
  O   O65       1.0  0.00052  0.25032  0.00019  1.0000
  O   O66       1.0  0.00025  0.25019  0.50051  1.0000
  O   O67       1.0  0.00051  0.75040  0.00017  1.0000
  O   O68       1.0  0.00046  0.75025  0.50034  1.0000
  O   O69       1.0  0.50047  0.25040  0.00044  1.0000
  O   O70       1.0  0.50051  0.25040  0.50047  1.0000
  O   O71       1.0  0.50059  0.75027  0.00030  1.0000
  O   O72       1.0  0.50049  0.75023  0.50029  1.0000
  O   O73       1.0  0.25030  0.25017  0.25026  1.0000
  O   O74       1.0  0.25051  0.25029  0.75038  1.0000
  O   O75       1.0  0.25066  0.75037  0.25045  1.0000
  O   O76       1.0  0.25056  0.75034  0.75052  1.0000
  O   O77       1.0  0.75033  0.25026  0.25041  1.0000
  O   O78       1.0  0.75041  0.25046  0.75033  1.0000
  O   O79       1.0  0.75031  0.75024  0.25046  1.0000
  O   O80       1.0  0.75038  0.75019  0.75025  1.0000
