data_image0
_chemical_formula_structural       Y16Sn16O56
_chemical_formula_sum              "Y16 Sn16 O56"
_cell_length_a       10.4038
_cell_length_b       10.4038
_cell_length_c       10.4038
_cell_angle_alpha    90
_cell_angle_beta     90
_cell_angle_gamma    90

_space_group_name_H-M_alt    "P 1"
_space_group_IT_number       1

loop_
  _space_group_symop_operation_xyz
  'x, y, z'

loop_
  _atom_site_type_symbol
  _atom_site_label
  _atom_site_symmetry_multiplicity
  _atom_site_fract_x
  _atom_site_fract_y
  _atom_site_fract_z
  _atom_site_occupancy
  Y   Y1        1.0  0.12530  0.12565  0.12549  1.0000
  Y   Y2        1.0  0.62538  0.62567  0.12542  1.0000
  Y   Y3        1.0  0.62534  0.12548  0.62537  1.0000
  Y   Y4        1.0  0.12552  0.62548  0.62559  1.0000
  Y   Y5        1.0  0.12570  0.37558  0.37556  1.0000
  Y   Y6        1.0  0.62582  0.87554  0.37553  1.0000
  Y   Y7        1.0  0.62552  0.37548  0.87551  1.0000
  Y   Y8        1.0  0.12556  0.87566  0.87553  1.0000
  Y   Y9        1.0  0.37541  0.12536  0.37538  1.0000
  Y   Y10       1.0  0.87567  0.62545  0.37545  1.0000
  Y   Y11       1.0  0.87542  0.12547  0.87530  1.0000
  Y   Y12       1.0  0.37542  0.62553  0.87553  1.0000
  Y   Y13       1.0  0.37552  0.37548  0.12544  1.0000
  Y   Y14       1.0  0.87545  0.87542  0.12532  1.0000
  Y   Y15       1.0  0.87550  0.37537  0.62538  1.0000
  Y   Y16       1.0  0.37550  0.87535  0.62537  1.0000
  Sn  Sn1       1.0  0.62550  0.62537  0.62551  1.0000
  Sn  Sn2       1.0  0.12549  0.12550  0.62550  1.0000
  Sn  Sn3       1.0  0.12548  0.62552  0.12552  1.0000
  Sn  Sn4       1.0  0.62548  0.12553  0.12540  1.0000
  Sn  Sn5       1.0  0.62551  0.37542  0.37539  1.0000
  Sn  Sn6       1.0  0.12547  0.87550  0.37552  1.0000
  Sn  Sn7       1.0  0.12544  0.37557  0.87538  1.0000
  Sn  Sn8       1.0  0.62544  0.87555  0.87539  1.0000
  Sn  Sn9       1.0  0.37558  0.62549  0.37543  1.0000
  Sn  Sn10      1.0  0.87553  0.12546  0.37540  1.0000
  Sn  Sn11      1.0  0.87544  0.62553  0.87550  1.0000
  Sn  Sn12      1.0  0.37548  0.12554  0.87546  1.0000
  Sn  Sn13      1.0  0.37562  0.37546  0.62550  1.0000
  Sn  Sn14      1.0  0.87548  0.87548  0.62550  1.0000
  Sn  Sn15      1.0  0.87543  0.37556  0.12543  1.0000
  Sn  Sn16      1.0  0.37550  0.87556  0.12548  1.0000
  O   O1        1.0  0.25047  0.25057  0.25050  1.0000
  O   O2        1.0  0.75060  0.75046  0.25043  1.0000
  O   O3        1.0  0.75046  0.25041  0.75035  1.0000
  O   O4        1.0  0.25050  0.75056  0.75049  1.0000
  O   O5        1.0  0.00050  0.00056  0.00053  1.0000
  O   O6        1.0  0.50044  0.50061  0.00050  1.0000
  O   O7        1.0  0.50048  0.00041  0.50040  1.0000
  O   O8        1.0  0.00062  0.50046  0.50048  1.0000
  O   O9        1.0  0.50070  0.28757  0.50057  1.0000
  O   O10       1.0  0.00047  0.78760  0.50055  1.0000
  O   O11       1.0  0.00050  0.28790  0.00045  1.0000
  O   O12       1.0  0.50051  0.78774  0.00048  1.0000
  O   O13       1.0  0.75060  0.53755  0.75045  1.0000
  O   O14       1.0  0.25037  0.03756  0.75059  1.0000
  O   O15       1.0  0.25050  0.53767  0.25048  1.0000
  O   O16       1.0  0.75043  0.03762  0.25045  1.0000
  O   O17       1.0  0.50046  0.50036  0.28752  1.0000
  O   O18       1.0  0.00053  0.00046  0.28763  1.0000
  O   O19       1.0  0.00056  0.50066  0.78750  1.0000
  O   O20       1.0  0.50042  0.00050  0.78755  1.0000
  O   O21       1.0  0.28789  0.50044  0.50046  1.0000
  O   O22       1.0  0.78768  0.00043  0.50041  1.0000
  O   O23       1.0  0.78748  0.50050  0.00044  1.0000
  O   O24       1.0  0.28773  0.00064  0.00054  1.0000
  O   O25       1.0  0.71339  0.50039  0.50048  1.0000
  O   O26       1.0  0.21332  0.00052  0.50048  1.0000
  O   O27       1.0  0.21331  0.50077  0.00028  1.0000
  O   O28       1.0  0.71327  0.00052  0.00041  1.0000
  O   O29       1.0  0.50057  0.50037  0.71345  1.0000
  O   O30       1.0  0.00044  0.00055  0.71335  1.0000
  O   O31       1.0  0.00054  0.50044  0.21338  1.0000
  O   O32       1.0  0.50038  0.00065  0.21327  1.0000
  O   O33       1.0  0.50046  0.71318  0.50056  1.0000
  O   O34       1.0  0.00059  0.21332  0.50037  1.0000
  O   O35       1.0  0.00031  0.71331  0.00065  1.0000
  O   O36       1.0  0.50049  0.21358  0.00043  1.0000
  O   O37       1.0  0.53769  0.75046  0.75046  1.0000
  O   O38       1.0  0.03749  0.25051  0.75044  1.0000
  O   O39       1.0  0.03764  0.75041  0.25060  1.0000
  O   O40       1.0  0.53758  0.25036  0.25050  1.0000
  O   O41       1.0  0.96330  0.75062  0.75063  1.0000
  O   O42       1.0  0.46340  0.25035  0.75039  1.0000
  O   O43       1.0  0.46353  0.75053  0.25046  1.0000
  O   O44       1.0  0.96332  0.25042  0.25030  1.0000
  O   O45       1.0  0.75048  0.96339  0.75044  1.0000
  O   O46       1.0  0.25048  0.46338  0.75036  1.0000
  O   O47       1.0  0.25036  0.96330  0.25042  1.0000
  O   O48       1.0  0.75049  0.46331  0.25044  1.0000
  O   O49       1.0  0.75038  0.75046  0.53763  1.0000
  O   O50       1.0  0.25061  0.25047  0.53781  1.0000
  O   O51       1.0  0.25044  0.75059  0.03767  1.0000
  O   O52       1.0  0.75057  0.25047  0.03752  1.0000
  O   O53       1.0  0.75044  0.75058  0.96334  1.0000
  O   O54       1.0  0.25048  0.25062  0.96321  1.0000
  O   O55       1.0  0.25053  0.75050  0.46335  1.0000
  O   O56       1.0  0.75060  0.25049  0.46326  1.0000
