data_image0
_chemical_formula_structural       K36Bi36O72
_chemical_formula_sum              "K36 Bi36 O72"
_cell_length_a       14.758
_cell_length_b       14.5919
_cell_length_c       13.2219
_cell_angle_alpha    105.484
_cell_angle_beta     94.9221
_cell_angle_gamma    86.4595

_space_group_name_H-M_alt    "P 1"
_space_group_IT_number       1

loop_
  _space_group_symop_operation_xyz
  'x, y, z'

loop_
  _atom_site_type_symbol
  _atom_site_label
  _atom_site_symmetry_multiplicity
  _atom_site_fract_x
  _atom_site_fract_y
  _atom_site_fract_z
  _atom_site_occupancy
  K   K1        1.0  0.05795  0.20730  0.24329  1.0000
  K   K2        1.0  0.05800  0.20729  0.74330  1.0000
  K   K3        1.0  0.39124  0.20735  0.57665  1.0000
  K   K4        1.0  0.39123  0.20730  0.07662  1.0000
  K   K5        1.0  0.28010  0.54065  0.46546  1.0000
  K   K6        1.0  0.28007  0.54073  0.96551  1.0000
  K   K7        1.0  0.16897  0.87396  0.35436  1.0000
  K   K8        1.0  0.16900  0.87396  0.85437  1.0000
  K   K9        1.0  0.72453  0.20737  0.40988  1.0000
  K   K10       1.0  0.72453  0.20730  0.90983  1.0000
  K   K11       1.0  0.61347  0.54062  0.29872  1.0000
  K   K12       1.0  0.61350  0.54074  0.79875  1.0000
  K   K13       1.0  0.50239  0.87398  0.68766  1.0000
  K   K14       1.0  0.50231  0.87385  0.18763  1.0000
  K   K15       1.0  0.94687  0.54055  0.63202  1.0000
  K   K16       1.0  0.94666  0.54066  0.13202  1.0000
  K   K17       1.0  0.83574  0.87403  0.52099  1.0000
  K   K18       1.0  0.83562  0.87401  0.02101  1.0000
  K   K19       1.0  0.16521  0.12697  0.98001  1.0000
  K   K20       1.0  0.16502  0.12688  0.47997  1.0000
  K   K21       1.0  0.49835  0.12690  0.31314  1.0000
  K   K22       1.0  0.49829  0.12694  0.81316  1.0000
  K   K23       1.0  0.38715  0.46027  0.20210  1.0000
  K   K24       1.0  0.38732  0.46038  0.70210  1.0000
  K   K25       1.0  0.27605  0.79359  0.09102  1.0000
  K   K26       1.0  0.27615  0.79362  0.59101  1.0000
  K   K27       1.0  0.83174  0.12702  0.14655  1.0000
  K   K28       1.0  0.83165  0.12696  0.64653  1.0000
  K   K29       1.0  0.72061  0.46029  0.03528  1.0000
  K   K30       1.0  0.72062  0.46034  0.53532  1.0000
  K   K31       1.0  0.60957  0.79370  0.42429  1.0000
  K   K32       1.0  0.60943  0.79356  0.92424  1.0000
  K   K33       1.0  0.05386  0.46030  0.36875  1.0000
  K   K34       1.0  0.05392  0.46029  0.86875  1.0000
  K   K35       1.0  0.94279  0.79363  0.25750  1.0000
  K   K36       1.0  0.94279  0.79359  0.75751  1.0000
  Bi  Bi1       1.0  0.95286  0.28612  0.00638  1.0000
  Bi  Bi2       1.0  0.95296  0.28607  0.50648  1.0000
  Bi  Bi3       1.0  0.28612  0.28601  0.33983  1.0000
  Bi  Bi4       1.0  0.28617  0.28618  0.83973  1.0000
  Bi  Bi5       1.0  0.17498  0.61955  0.22873  1.0000
  Bi  Bi6       1.0  0.17492  0.61949  0.72861  1.0000
  Bi  Bi7       1.0  0.06391  0.95285  0.11748  1.0000
  Bi  Bi8       1.0  0.06394  0.95272  0.61758  1.0000
  Bi  Bi9       1.0  0.61942  0.28615  0.17302  1.0000
  Bi  Bi10      1.0  0.61935  0.28626  0.67303  1.0000
  Bi  Bi11      1.0  0.50840  0.61942  0.06201  1.0000
  Bi  Bi12      1.0  0.50839  0.61947  0.56187  1.0000
  Bi  Bi13      1.0  0.39735  0.95274  0.45082  1.0000
  Bi  Bi14      1.0  0.39724  0.95268  0.95086  1.0000
  Bi  Bi15      1.0  0.84169  0.61948  0.39525  1.0000
  Bi  Bi16      1.0  0.84169  0.61943  0.89508  1.0000
  Bi  Bi17      1.0  0.73057  0.95278  0.28417  1.0000
  Bi  Bi18      1.0  0.73072  0.95273  0.78423  1.0000
  Bi  Bi19      1.0  0.27013  0.04803  0.21687  1.0000
  Bi  Bi20      1.0  0.27014  0.04811  0.71674  1.0000
  Bi  Bi21      1.0  0.60345  0.04828  0.55009  1.0000
  Bi  Bi22      1.0  0.60343  0.04812  0.05001  1.0000
  Bi  Bi23      1.0  0.49232  0.38147  0.43892  1.0000
  Bi  Bi24      1.0  0.49241  0.38149  0.93896  1.0000
  Bi  Bi25      1.0  0.38120  0.71481  0.32791  1.0000
  Bi  Bi26      1.0  0.38110  0.71477  0.82781  1.0000
  Bi  Bi27      1.0  0.93678  0.04813  0.38344  1.0000
  Bi  Bi28      1.0  0.93692  0.04810  0.88336  1.0000
  Bi  Bi29      1.0  0.82562  0.38153  0.27211  1.0000
  Bi  Bi30      1.0  0.82564  0.38147  0.77212  1.0000
  Bi  Bi31      1.0  0.71458  0.71481  0.66103  1.0000
  Bi  Bi32      1.0  0.71458  0.71478  0.16109  1.0000
  Bi  Bi33      1.0  0.15913  0.38152  0.60559  1.0000
  Bi  Bi34      1.0  0.15899  0.38160  0.10567  1.0000
  Bi  Bi35      1.0  0.04790  0.71478  0.49440  1.0000
  Bi  Bi36      1.0  0.04784  0.71489  0.99441  1.0000
  O   O1        1.0  0.98128  0.15491  0.04333  1.0000
  O   O2        1.0  0.98117  0.15483  0.54348  1.0000
  O   O3        1.0  0.31447  0.15482  0.37687  1.0000
  O   O4        1.0  0.31451  0.15502  0.87674  1.0000
  O   O5        1.0  0.20327  0.48836  0.26575  1.0000
  O   O6        1.0  0.20335  0.48835  0.76567  1.0000
  O   O7        1.0  0.09214  0.82162  0.15444  1.0000
  O   O8        1.0  0.09226  0.82148  0.65449  1.0000
  O   O9        1.0  0.64783  0.15495  0.20999  1.0000
  O   O10       1.0  0.64775  0.15505  0.71002  1.0000
  O   O11       1.0  0.53671  0.48822  0.09900  1.0000
  O   O12       1.0  0.53682  0.48826  0.59883  1.0000
  O   O13       1.0  0.42569  0.82152  0.48783  1.0000
  O   O14       1.0  0.42553  0.82147  0.98784  1.0000
  O   O15       1.0  0.87007  0.48823  0.43212  1.0000
  O   O16       1.0  0.87006  0.48823  0.93209  1.0000
  O   O17       1.0  0.75900  0.82158  0.32112  1.0000
  O   O18       1.0  0.75900  0.82150  0.82115  1.0000
  O   O19       1.0  0.07894  0.30152  0.95010  1.0000
  O   O20       1.0  0.07900  0.30151  0.45004  1.0000
  O   O21       1.0  0.41217  0.30146  0.28352  1.0000
  O   O22       1.0  0.41221  0.30156  0.78338  1.0000
  O   O23       1.0  0.30105  0.63488  0.17233  1.0000
  O   O24       1.0  0.30095  0.63488  0.67222  1.0000
  O   O25       1.0  0.19001  0.96814  0.06123  1.0000
  O   O26       1.0  0.19003  0.96804  0.56125  1.0000
  O   O27       1.0  0.74542  0.30165  0.11658  1.0000
  O   O28       1.0  0.74537  0.30158  0.61662  1.0000
  O   O29       1.0  0.63443  0.63478  0.00559  1.0000
  O   O30       1.0  0.63444  0.63491  0.50554  1.0000
  O   O31       1.0  0.52339  0.96814  0.39447  1.0000
  O   O32       1.0  0.52328  0.96806  0.89449  1.0000
  O   O33       1.0  0.96772  0.63492  0.33883  1.0000
  O   O34       1.0  0.96772  0.63486  0.83875  1.0000
  O   O35       1.0  0.85665  0.96814  0.22783  1.0000
  O   O36       1.0  0.85672  0.96814  0.72778  1.0000
  O   O37       1.0  0.14402  0.03276  0.27316  1.0000
  O   O38       1.0  0.14409  0.03271  0.77311  1.0000
  O   O39       1.0  0.47739  0.03276  0.60639  1.0000
  O   O40       1.0  0.47739  0.03266  0.10634  1.0000
  O   O41       1.0  0.36625  0.36610  0.49535  1.0000
  O   O42       1.0  0.36632  0.36616  0.99526  1.0000
  O   O43       1.0  0.25511  0.69944  0.38423  1.0000
  O   O44       1.0  0.25504  0.69947  0.88424  1.0000
  O   O45       1.0  0.81067  0.03286  0.43972  1.0000
  O   O46       1.0  0.81082  0.03271  0.93968  1.0000
  O   O47       1.0  0.69959  0.36613  0.32848  1.0000
  O   O48       1.0  0.69958  0.36623  0.82853  1.0000
  O   O49       1.0  0.58849  0.69945  0.71734  1.0000
  O   O50       1.0  0.58857  0.69934  0.21753  1.0000
  O   O51       1.0  0.03311  0.36598  0.66192  1.0000
  O   O52       1.0  0.03295  0.36607  0.16193  1.0000
  O   O53       1.0  0.92187  0.69927  0.55077  1.0000
  O   O54       1.0  0.92180  0.69945  0.05072  1.0000
  O   O55       1.0  0.24186  0.17919  0.17980  1.0000
  O   O56       1.0  0.24176  0.17931  0.67976  1.0000
  O   O57       1.0  0.57501  0.17942  0.51298  1.0000
  O   O58       1.0  0.57496  0.17929  0.01304  1.0000
  O   O59       1.0  0.46399  0.51266  0.40188  1.0000
  O   O60       1.0  0.46411  0.51270  0.90200  1.0000
  O   O61       1.0  0.35294  0.84596  0.29080  1.0000
  O   O62       1.0  0.35287  0.84591  0.79072  1.0000
  O   O63       1.0  0.90850  0.17936  0.34650  1.0000
  O   O64       1.0  0.90849  0.17927  0.84639  1.0000
  O   O65       1.0  0.79721  0.51277  0.23526  1.0000
  O   O66       1.0  0.79740  0.51264  0.73505  1.0000
  O   O67       1.0  0.68630  0.84602  0.62411  1.0000
  O   O68       1.0  0.68618  0.84599  0.12414  1.0000
  O   O69       1.0  0.13056  0.51266  0.56858  1.0000
  O   O70       1.0  0.13050  0.51274  0.06868  1.0000
  O   O71       1.0  0.01955  0.84604  0.45754  1.0000
  O   O72       1.0  0.01946  0.84614  0.95752  1.0000
