data_image0
_chemical_formula_structural       Hf32O64
_chemical_formula_sum              "Hf32 O64"
_cell_length_a       10.1832
_cell_length_b       10.3015
_cell_length_c       10.5472
_cell_angle_alpha    90.0001
_cell_angle_beta     99.455
_cell_angle_gamma    89.999

_space_group_name_H-M_alt    "P 1"
_space_group_IT_number       1

loop_
  _space_group_symop_operation_xyz
  'x, y, z'

loop_
  _atom_site_type_symbol
  _atom_site_label
  _atom_site_symmetry_multiplicity
  _atom_site_fract_x
  _atom_site_fract_y
  _atom_site_fract_z
  _atom_site_occupancy
  Hf  Hf1       1.0  0.13856  0.22988  0.35454  1.0000
  Hf  Hf2       1.0  0.13856  0.22991  0.85458  1.0000
  Hf  Hf3       1.0  0.13859  0.72989  0.35452  1.0000
  Hf  Hf4       1.0  0.13856  0.72993  0.85457  1.0000
  Hf  Hf5       1.0  0.63866  0.22987  0.35464  1.0000
  Hf  Hf6       1.0  0.63855  0.22991  0.85460  1.0000
  Hf  Hf7       1.0  0.63854  0.72988  0.35463  1.0000
  Hf  Hf8       1.0  0.63855  0.72989  0.85461  1.0000
  Hf  Hf9       1.0  0.36254  0.47981  0.39651  1.0000
  Hf  Hf10      1.0  0.36248  0.47990  0.89647  1.0000
  Hf  Hf11      1.0  0.36252  0.97990  0.39646  1.0000
  Hf  Hf12      1.0  0.36253  0.97990  0.89652  1.0000
  Hf  Hf13      1.0  0.86251  0.47990  0.39655  1.0000
  Hf  Hf14      1.0  0.86250  0.47993  0.89650  1.0000
  Hf  Hf15      1.0  0.86253  0.97987  0.39649  1.0000
  Hf  Hf16      1.0  0.86248  0.97991  0.89647  1.0000
  Hf  Hf17      1.0  0.36255  0.27101  0.14659  1.0000
  Hf  Hf18      1.0  0.36246  0.27101  0.64652  1.0000
  Hf  Hf19      1.0  0.36248  0.77112  0.14647  1.0000
  Hf  Hf20      1.0  0.36255  0.77103  0.64651  1.0000
  Hf  Hf21      1.0  0.86248  0.27109  0.14654  1.0000
  Hf  Hf22      1.0  0.86249  0.27101  0.64650  1.0000
  Hf  Hf23      1.0  0.86247  0.77107  0.14652  1.0000
  Hf  Hf24      1.0  0.86253  0.77105  0.64652  1.0000
  Hf  Hf25      1.0  0.13856  0.02110  0.10449  1.0000
  Hf  Hf26      1.0  0.13852  0.02101  0.60452  1.0000
  Hf  Hf27      1.0  0.13863  0.52110  0.10453  1.0000
  Hf  Hf28      1.0  0.13859  0.52105  0.60455  1.0000
  Hf  Hf29      1.0  0.63857  0.02106  0.10455  1.0000
  Hf  Hf30      1.0  0.63859  0.02103  0.60460  1.0000
  Hf  Hf31      1.0  0.63851  0.52100  0.10461  1.0000
  Hf  Hf32      1.0  0.63858  0.52101  0.60460  1.0000
  O   O1        1.0  0.22452  0.37182  0.48990  1.0000
  O   O2        1.0  0.22451  0.37181  0.98993  1.0000
  O   O3        1.0  0.22454  0.87176  0.48991  1.0000
  O   O4        1.0  0.22455  0.87184  0.98995  1.0000
  O   O5        1.0  0.72455  0.37176  0.48995  1.0000
  O   O6        1.0  0.72450  0.37178  0.98996  1.0000
  O   O7        1.0  0.72451  0.87176  0.48994  1.0000
  O   O8        1.0  0.72450  0.87181  0.98994  1.0000
  O   O9        1.0  0.27651  0.12174  0.26110  1.0000
  O   O10       1.0  0.27644  0.12179  0.76118  1.0000
  O   O11       1.0  0.27659  0.62174  0.26113  1.0000
  O   O12       1.0  0.27653  0.62178  0.76111  1.0000
  O   O13       1.0  0.77660  0.12176  0.26114  1.0000
  O   O14       1.0  0.77655  0.12180  0.76110  1.0000
  O   O15       1.0  0.77644  0.62180  0.26114  1.0000
  O   O16       1.0  0.77662  0.62175  0.76114  1.0000
  O   O17       1.0  0.27653  0.12921  0.01118  1.0000
  O   O18       1.0  0.27656  0.12916  0.51114  1.0000
  O   O19       1.0  0.27644  0.62923  0.01110  1.0000
  O   O20       1.0  0.27662  0.62913  0.51115  1.0000
  O   O21       1.0  0.77653  0.12919  0.01113  1.0000
  O   O22       1.0  0.77662  0.12915  0.51116  1.0000
  O   O23       1.0  0.77647  0.62915  0.01114  1.0000
  O   O24       1.0  0.77658  0.62912  0.51118  1.0000
  O   O25       1.0  0.22461  0.37914  0.23997  1.0000
  O   O26       1.0  0.22453  0.37913  0.73986  1.0000
  O   O27       1.0  0.22453  0.87919  0.23994  1.0000
  O   O28       1.0  0.22454  0.87916  0.73992  1.0000
  O   O29       1.0  0.72450  0.37914  0.23993  1.0000
  O   O30       1.0  0.72446  0.37913  0.73994  1.0000
  O   O31       1.0  0.72451  0.87920  0.23992  1.0000
  O   O32       1.0  0.72450  0.87912  0.73995  1.0000
  O   O33       1.0  0.03510  0.16625  0.17343  1.0000
  O   O34       1.0  0.03503  0.16616  0.67345  1.0000
  O   O35       1.0  0.03507  0.66608  0.17352  1.0000
  O   O36       1.0  0.03505  0.66611  0.67352  1.0000
  O   O37       1.0  0.53513  0.16610  0.17360  1.0000
  O   O38       1.0  0.53501  0.16600  0.67364  1.0000
  O   O39       1.0  0.53491  0.66607  0.17356  1.0000
  O   O40       1.0  0.53509  0.66604  0.67360  1.0000
  O   O41       1.0  0.46599  0.41607  0.07756  1.0000
  O   O42       1.0  0.46607  0.41608  0.57764  1.0000
  O   O43       1.0  0.46597  0.91613  0.07755  1.0000
  O   O44       1.0  0.46608  0.91601  0.57745  1.0000
  O   O45       1.0  0.96597  0.41622  0.07758  1.0000
  O   O46       1.0  0.96598  0.41613  0.57762  1.0000
  O   O47       1.0  0.96599  0.91619  0.07759  1.0000
  O   O48       1.0  0.96602  0.91604  0.57749  1.0000
  O   O49       1.0  0.46611  0.33475  0.32763  1.0000
  O   O50       1.0  0.46598  0.33482  0.82755  1.0000
  O   O51       1.0  0.46596  0.83476  0.32751  1.0000
  O   O52       1.0  0.46600  0.83485  0.82752  1.0000
  O   O53       1.0  0.96605  0.33489  0.32754  1.0000
  O   O54       1.0  0.96602  0.33485  0.82753  1.0000
  O   O55       1.0  0.96594  0.83473  0.32757  1.0000
  O   O56       1.0  0.96605  0.83494  0.82749  1.0000
  O   O57       1.0  0.03512  0.08468  0.42342  1.0000
  O   O58       1.0  0.03498  0.08491  0.92345  1.0000
  O   O59       1.0  0.03502  0.58483  0.42354  1.0000
  O   O60       1.0  0.03498  0.58495  0.92355  1.0000
  O   O61       1.0  0.53515  0.08480  0.42360  1.0000
  O   O62       1.0  0.53499  0.08494  0.92357  1.0000
  O   O63       1.0  0.53509  0.58477  0.42358  1.0000
  O   O64       1.0  0.53497  0.58483  0.92362  1.0000
