data_image0
_chemical_formula_structural       Li16Nb48O128
_chemical_formula_sum              "Li16 Nb48 O128"
_cell_length_a       10.1207
_cell_length_b       15.0813
_cell_length_c       15.4276
_cell_angle_alpha    72.6616
_cell_angle_beta     89.9971
_cell_angle_gamma    90.0005

_space_group_name_H-M_alt    "P 1"
_space_group_IT_number       1

loop_
  _space_group_symop_operation_xyz
  'x, y, z'

loop_
  _atom_site_type_symbol
  _atom_site_label
  _atom_site_symmetry_multiplicity
  _atom_site_fract_x
  _atom_site_fract_y
  _atom_site_fract_z
  _atom_site_occupancy
  Li  Li1       1.0  0.37917  0.12973  0.08026  1.0000
  Li  Li2       1.0  0.37916  0.62982  0.08024  1.0000
  Li  Li3       1.0  0.87919  0.12980  0.08027  1.0000
  Li  Li4       1.0  0.87913  0.62999  0.08012  1.0000
  Li  Li5       1.0  0.37187  0.12983  0.58025  1.0000
  Li  Li6       1.0  0.37182  0.62981  0.58023  1.0000
  Li  Li7       1.0  0.87182  0.12978  0.58023  1.0000
  Li  Li8       1.0  0.87184  0.62999  0.58006  1.0000
  Li  Li9       1.0  0.12172  0.37066  0.92036  1.0000
  Li  Li10      1.0  0.12178  0.87057  0.92046  1.0000
  Li  Li11      1.0  0.62176  0.37042  0.92049  1.0000
  Li  Li12      1.0  0.62183  0.87059  0.92047  1.0000
  Li  Li13      1.0  0.12916  0.37062  0.42051  1.0000
  Li  Li14      1.0  0.12928  0.87048  0.42054  1.0000
  Li  Li15      1.0  0.62923  0.37038  0.42065  1.0000
  Li  Li16      1.0  0.62926  0.87059  0.42040  1.0000
  Nb  Nb1       1.0  0.37160  0.26011  0.83556  1.0000
  Nb  Nb2       1.0  0.37158  0.76012  0.83552  1.0000
  Nb  Nb3       1.0  0.87160  0.26009  0.83556  1.0000
  Nb  Nb4       1.0  0.87156  0.76013  0.83547  1.0000
  Nb  Nb5       1.0  0.12166  0.24033  0.66521  1.0000
  Nb  Nb6       1.0  0.12167  0.74035  0.66512  1.0000
  Nb  Nb7       1.0  0.62162  0.24035  0.66520  1.0000
  Nb  Nb8       1.0  0.62163  0.74035  0.66514  1.0000
  Nb  Nb9       1.0  0.12939  0.24033  0.16515  1.0000
  Nb  Nb10      1.0  0.12934  0.74033  0.16513  1.0000
  Nb  Nb11      1.0  0.62932  0.24031  0.16518  1.0000
  Nb  Nb12      1.0  0.62935  0.74035  0.16516  1.0000
  Nb  Nb13      1.0  0.37940  0.26010  0.33551  1.0000
  Nb  Nb14      1.0  0.37940  0.76011  0.33550  1.0000
  Nb  Nb15      1.0  0.87943  0.26010  0.33545  1.0000
  Nb  Nb16      1.0  0.87942  0.76008  0.33550  1.0000
  Nb  Nb17      1.0  0.12340  0.12457  0.92642  1.0000
  Nb  Nb18      1.0  0.12336  0.62465  0.92637  1.0000
  Nb  Nb19      1.0  0.62340  0.12458  0.92642  1.0000
  Nb  Nb20      1.0  0.62336  0.62463  0.92638  1.0000
  Nb  Nb21      1.0  0.37341  0.37584  0.57433  1.0000
  Nb  Nb22      1.0  0.37343  0.87587  0.57428  1.0000
  Nb  Nb23      1.0  0.87341  0.37579  0.57430  1.0000
  Nb  Nb24      1.0  0.87348  0.87587  0.57429  1.0000
  Nb  Nb25      1.0  0.37757  0.37586  0.07430  1.0000
  Nb  Nb26      1.0  0.37760  0.87587  0.07429  1.0000
  Nb  Nb27      1.0  0.87757  0.37579  0.07430  1.0000
  Nb  Nb28      1.0  0.87758  0.87586  0.07430  1.0000
  Nb  Nb29      1.0  0.12764  0.12464  0.42642  1.0000
  Nb  Nb30      1.0  0.12766  0.62455  0.42639  1.0000
  Nb  Nb31      1.0  0.62765  0.12461  0.42641  1.0000
  Nb  Nb32      1.0  0.62765  0.62460  0.42642  1.0000
  Nb  Nb33      1.0  0.36770  0.00499  0.83166  1.0000
  Nb  Nb34      1.0  0.36766  0.50498  0.83170  1.0000
  Nb  Nb35      1.0  0.86768  0.00501  0.83166  1.0000
  Nb  Nb36      1.0  0.86764  0.50500  0.83170  1.0000
  Nb  Nb37      1.0  0.11764  0.49544  0.66900  1.0000
  Nb  Nb38      1.0  0.11773  0.99542  0.66903  1.0000
  Nb  Nb39      1.0  0.61766  0.49546  0.66899  1.0000
  Nb  Nb40      1.0  0.61769  0.99544  0.66905  1.0000
  Nb  Nb41      1.0  0.13329  0.49548  0.16897  1.0000
  Nb  Nb42      1.0  0.13331  0.99541  0.16905  1.0000
  Nb  Nb43      1.0  0.63338  0.49551  0.16898  1.0000
  Nb  Nb44      1.0  0.63332  0.99546  0.16903  1.0000
  Nb  Nb45      1.0  0.38334  0.00502  0.33170  1.0000
  Nb  Nb46      1.0  0.38336  0.50497  0.33170  1.0000
  Nb  Nb47      1.0  0.88341  0.00498  0.33172  1.0000
  Nb  Nb48      1.0  0.88331  0.50494  0.33171  1.0000
  O   O1        1.0  0.21116  0.01921  0.90027  1.0000
  O   O2        1.0  0.21108  0.51919  0.90022  1.0000
  O   O3        1.0  0.71116  0.01918  0.90021  1.0000
  O   O4        1.0  0.71107  0.51919  0.90025  1.0000
  O   O5        1.0  0.46106  0.48128  0.60045  1.0000
  O   O6        1.0  0.46116  0.98120  0.60048  1.0000
  O   O7        1.0  0.96106  0.48118  0.60050  1.0000
  O   O8        1.0  0.96114  0.98122  0.60050  1.0000
  O   O9        1.0  0.28990  0.48126  0.10044  1.0000
  O   O10       1.0  0.28994  0.98128  0.10049  1.0000
  O   O11       1.0  0.78990  0.48119  0.10043  1.0000
  O   O12       1.0  0.78992  0.98127  0.10046  1.0000
  O   O13       1.0  0.03999  0.01922  0.40022  1.0000
  O   O14       1.0  0.03994  0.51918  0.40025  1.0000
  O   O15       1.0  0.53994  0.01921  0.40022  1.0000
  O   O16       1.0  0.53996  0.51922  0.40023  1.0000
  O   O17       1.0  0.28512  0.17606  0.95232  1.0000
  O   O18       1.0  0.28504  0.67612  0.95224  1.0000
  O   O19       1.0  0.78509  0.17605  0.95229  1.0000
  O   O20       1.0  0.78505  0.67608  0.95226  1.0000
  O   O21       1.0  0.03508  0.32429  0.54849  1.0000
  O   O22       1.0  0.03510  0.82430  0.54843  1.0000
  O   O23       1.0  0.53512  0.32431  0.54847  1.0000
  O   O24       1.0  0.53507  0.82433  0.54841  1.0000
  O   O25       1.0  0.21588  0.32436  0.04843  1.0000
  O   O26       1.0  0.21595  0.82441  0.04842  1.0000
  O   O27       1.0  0.71585  0.32430  0.04846  1.0000
  O   O28       1.0  0.71592  0.82433  0.04841  1.0000
  O   O29       1.0  0.46595  0.17610  0.45224  1.0000
  O   O30       1.0  0.46595  0.67608  0.45228  1.0000
  O   O31       1.0  0.96598  0.17610  0.45225  1.0000
  O   O32       1.0  0.96595  0.67608  0.45223  1.0000
  O   O33       1.0  0.45982  0.11192  0.84532  1.0000
  O   O34       1.0  0.45981  0.61198  0.84527  1.0000
  O   O35       1.0  0.95981  0.11197  0.84528  1.0000
  O   O36       1.0  0.95982  0.61198  0.84529  1.0000
  O   O37       1.0  0.29122  0.11196  0.34534  1.0000
  O   O38       1.0  0.29112  0.61194  0.34527  1.0000
  O   O39       1.0  0.79120  0.11195  0.34529  1.0000
  O   O40       1.0  0.79118  0.61194  0.34529  1.0000
  O   O41       1.0  0.04116  0.38848  0.15541  1.0000
  O   O42       1.0  0.04111  0.88851  0.15540  1.0000
  O   O43       1.0  0.54116  0.38853  0.15536  1.0000
  O   O44       1.0  0.54117  0.88846  0.15543  1.0000
  O   O45       1.0  0.20986  0.38846  0.65544  1.0000
  O   O46       1.0  0.20985  0.88846  0.65541  1.0000
  O   O47       1.0  0.70985  0.38845  0.65544  1.0000
  O   O48       1.0  0.70989  0.88849  0.65540  1.0000
  O   O49       1.0  0.46659  0.04382  0.21737  1.0000
  O   O50       1.0  0.46659  0.54379  0.21737  1.0000
  O   O51       1.0  0.96662  0.04379  0.21737  1.0000
  O   O52       1.0  0.96659  0.54380  0.21741  1.0000
  O   O53       1.0  0.21662  0.45667  0.28327  1.0000
  O   O54       1.0  0.21662  0.95659  0.28335  1.0000
  O   O55       1.0  0.71656  0.45656  0.28333  1.0000
  O   O56       1.0  0.71662  0.95660  0.28334  1.0000
  O   O57       1.0  0.03450  0.45665  0.78334  1.0000
  O   O58       1.0  0.03444  0.95661  0.78332  1.0000
  O   O59       1.0  0.53439  0.45668  0.78329  1.0000
  O   O60       1.0  0.53440  0.95662  0.78336  1.0000
  O   O61       1.0  0.28443  0.04379  0.71735  1.0000
  O   O62       1.0  0.28440  0.54379  0.71735  1.0000
  O   O63       1.0  0.78445  0.04381  0.71735  1.0000
  O   O64       1.0  0.78446  0.54382  0.71738  1.0000
  O   O65       1.0  0.45296  0.36911  0.34528  1.0000
  O   O66       1.0  0.45298  0.86909  0.34523  1.0000
  O   O67       1.0  0.95303  0.36908  0.34524  1.0000
  O   O68       1.0  0.95298  0.86908  0.34520  1.0000
  O   O69       1.0  0.20300  0.13135  0.15545  1.0000
  O   O70       1.0  0.20292  0.63134  0.15542  1.0000
  O   O71       1.0  0.70298  0.13130  0.15547  1.0000
  O   O72       1.0  0.70297  0.63136  0.15539  1.0000
  O   O73       1.0  0.04806  0.13135  0.65546  1.0000
  O   O74       1.0  0.04802  0.63139  0.65541  1.0000
  O   O75       1.0  0.54802  0.13132  0.65547  1.0000
  O   O76       1.0  0.54806  0.63134  0.65541  1.0000
  O   O77       1.0  0.29801  0.36911  0.84526  1.0000
  O   O78       1.0  0.29801  0.86912  0.84522  1.0000
  O   O79       1.0  0.79805  0.36912  0.84525  1.0000
  O   O80       1.0  0.79796  0.86913  0.84521  1.0000
  O   O81       1.0  0.04270  0.20713  0.28481  1.0000
  O   O82       1.0  0.04273  0.70707  0.28475  1.0000
  O   O83       1.0  0.54267  0.20706  0.28482  1.0000
  O   O84       1.0  0.54266  0.70716  0.28478  1.0000
  O   O85       1.0  0.29262  0.29333  0.21590  1.0000
  O   O86       1.0  0.29269  0.79335  0.21587  1.0000
  O   O87       1.0  0.79269  0.29329  0.21588  1.0000
  O   O88       1.0  0.79274  0.79331  0.21589  1.0000
  O   O89       1.0  0.45825  0.29334  0.71593  1.0000
  O   O90       1.0  0.45829  0.79333  0.71589  1.0000
  O   O91       1.0  0.95828  0.29332  0.71592  1.0000
  O   O92       1.0  0.95830  0.79341  0.71585  1.0000
  O   O93       1.0  0.20836  0.20711  0.78481  1.0000
  O   O94       1.0  0.20831  0.70713  0.78478  1.0000
  O   O95       1.0  0.70833  0.20714  0.78478  1.0000
  O   O96       1.0  0.70835  0.70710  0.78476  1.0000
  O   O97       1.0  0.30127  0.42678  0.46011  1.0000
  O   O98       1.0  0.30130  0.92684  0.46006  1.0000
  O   O99       1.0  0.80129  0.42676  0.46008  1.0000
  O   O100      1.0  0.80131  0.92680  0.46007  1.0000
  O   O101      1.0  0.05131  0.07361  0.04066  1.0000
  O   O102      1.0  0.05118  0.57369  0.04059  1.0000
  O   O103      1.0  0.55121  0.07364  0.04060  1.0000
  O   O104      1.0  0.55127  0.57360  0.04061  1.0000
  O   O105      1.0  0.19984  0.07364  0.54062  1.0000
  O   O106      1.0  0.19977  0.57360  0.54063  1.0000
  O   O107      1.0  0.69979  0.07362  0.54064  1.0000
  O   O108      1.0  0.69980  0.57365  0.54064  1.0000
  O   O109      1.0  0.44977  0.42678  0.96007  1.0000
  O   O110      1.0  0.44977  0.92678  0.96008  1.0000
  O   O111      1.0  0.94973  0.42679  0.96009  1.0000
  O   O112      1.0  0.94977  0.92675  0.96009  1.0000
  O   O113      1.0  0.21817  0.25150  0.40177  1.0000
  O   O114      1.0  0.21813  0.75147  0.40178  1.0000
  O   O115      1.0  0.71817  0.25144  0.40177  1.0000
  O   O116      1.0  0.71818  0.75148  0.40177  1.0000
  O   O117      1.0  0.46814  0.24895  0.09889  1.0000
  O   O118      1.0  0.46809  0.74893  0.09891  1.0000
  O   O119      1.0  0.96811  0.24893  0.09895  1.0000
  O   O120      1.0  0.96809  0.74895  0.09889  1.0000
  O   O121      1.0  0.28295  0.24891  0.59896  1.0000
  O   O122      1.0  0.28295  0.74891  0.59897  1.0000
  O   O123      1.0  0.78289  0.24892  0.59896  1.0000
  O   O124      1.0  0.78292  0.74892  0.59895  1.0000
  O   O125      1.0  0.03287  0.25147  0.90179  1.0000
  O   O126      1.0  0.03289  0.75157  0.90169  1.0000
  O   O127      1.0  0.53290  0.25147  0.90180  1.0000
  O   O128      1.0  0.53293  0.75150  0.90177  1.0000
