data_image0
_chemical_formula_structural       Y24Al40O96
_chemical_formula_sum              "Y24 Al40 O96"
_cell_length_a       12.0043
_cell_length_b       12.0045
_cell_length_c       12.0044
_cell_angle_alpha    90.0009
_cell_angle_beta     89.9989
_cell_angle_gamma    90.0003

_space_group_name_H-M_alt    "P 1"
_space_group_IT_number       1

loop_
  _space_group_symop_operation_xyz
  'x, y, z'

loop_
  _atom_site_type_symbol
  _atom_site_label
  _atom_site_symmetry_multiplicity
  _atom_site_fract_x
  _atom_site_fract_y
  _atom_site_fract_z
  _atom_site_occupancy
  Y   Y1        1.0  0.25027  0.37538  0.50026  1.0000
  Y   Y2        1.0  0.75043  0.87543  0.00037  1.0000
  Y   Y3        1.0  0.00037  0.25043  0.62534  1.0000
  Y   Y4        1.0  0.50033  0.75053  0.12541  1.0000
  Y   Y5        1.0  0.50036  0.25038  0.37537  1.0000
  Y   Y6        1.0  0.00035  0.75033  0.87536  1.0000
  Y   Y7        1.0  0.62539  0.00046  0.25041  1.0000
  Y   Y8        1.0  0.12541  0.50043  0.75040  1.0000
  Y   Y9        1.0  0.37537  0.50043  0.25035  1.0000
  Y   Y10       1.0  0.87541  0.00045  0.75035  1.0000
  Y   Y11       1.0  0.25052  0.62542  0.00035  1.0000
  Y   Y12       1.0  0.75044  0.12547  0.50029  1.0000
  Y   Y13       1.0  0.25030  0.12542  0.00028  1.0000
  Y   Y14       1.0  0.75024  0.62545  0.50044  1.0000
  Y   Y15       1.0  0.50049  0.25030  0.87542  1.0000
  Y   Y16       1.0  0.00033  0.75037  0.37537  1.0000
  Y   Y17       1.0  0.00044  0.25045  0.12541  1.0000
  Y   Y18       1.0  0.50037  0.75036  0.62545  1.0000
  Y   Y19       1.0  0.87533  0.50043  0.25054  1.0000
  Y   Y20       1.0  0.37543  0.00039  0.75042  1.0000
  Y   Y21       1.0  0.12543  0.00044  0.25040  1.0000
  Y   Y22       1.0  0.62539  0.50034  0.75047  1.0000
  Y   Y23       1.0  0.25024  0.87536  0.50050  1.0000
  Y   Y24       1.0  0.75042  0.37545  0.00041  1.0000
  Al  Al1       1.0  0.75052  0.12545  0.00046  1.0000
  Al  Al2       1.0  0.25045  0.62541  0.50042  1.0000
  Al  Al3       1.0  0.75033  0.37545  0.50034  1.0000
  Al  Al4       1.0  0.25039  0.87544  0.00036  1.0000
  Al  Al5       1.0  0.12541  0.50043  0.25039  1.0000
  Al  Al6       1.0  0.62548  0.00045  0.75034  1.0000
  Al  Al7       1.0  0.50032  0.75045  0.37543  1.0000
  Al  Al8       1.0  0.00036  0.25038  0.87537  1.0000
  Al  Al9       1.0  0.37537  0.50033  0.75041  1.0000
  Al  Al10      1.0  0.87538  0.00042  0.25043  1.0000
  Al  Al11      1.0  0.50047  0.25035  0.12535  1.0000
  Al  Al12      1.0  0.00044  0.75039  0.62534  1.0000
  Al  Al13      1.0  0.25041  0.37541  0.00039  1.0000
  Al  Al14      1.0  0.75037  0.87544  0.50038  1.0000
  Al  Al15      1.0  0.00033  0.75035  0.12540  1.0000
  Al  Al16      1.0  0.50034  0.25030  0.62539  1.0000
  Al  Al17      1.0  0.00050  0.25036  0.37536  1.0000
  Al  Al18      1.0  0.50047  0.75039  0.87545  1.0000
  Al  Al19      1.0  0.12538  0.00040  0.75052  1.0000
  Al  Al20      1.0  0.62532  0.50043  0.25047  1.0000
  Al  Al21      1.0  0.37537  0.00042  0.25037  1.0000
  Al  Al22      1.0  0.87540  0.50043  0.75037  1.0000
  Al  Al23      1.0  0.25043  0.12534  0.50039  1.0000
  Al  Al24      1.0  0.75041  0.62543  0.00046  1.0000
  Al  Al25      1.0  0.00045  0.50043  0.00047  1.0000
  Al  Al26      1.0  0.50043  0.00041  0.50039  1.0000
  Al  Al27      1.0  0.25035  0.75052  0.25038  1.0000
  Al  Al28      1.0  0.75042  0.25041  0.75035  1.0000
  Al  Al29      1.0  0.25047  0.25037  0.25029  1.0000
  Al  Al30      1.0  0.75042  0.75041  0.75036  1.0000
  Al  Al31      1.0  0.25038  0.25035  0.75035  1.0000
  Al  Al32      1.0  0.75029  0.75044  0.25044  1.0000
  Al  Al33      1.0  0.00035  0.00039  0.00046  1.0000
  Al  Al34      1.0  0.50030  0.50031  0.50042  1.0000
  Al  Al35      1.0  0.50044  0.00049  0.00037  1.0000
  Al  Al36      1.0  0.00035  0.50050  0.50043  1.0000
  Al  Al37      1.0  0.00041  0.00039  0.50038  1.0000
  Al  Al38      1.0  0.50050  0.50039  0.00048  1.0000
  Al  Al39      1.0  0.75043  0.25045  0.25037  1.0000
  Al  Al40      1.0  0.25043  0.75041  0.75048  1.0000
  O   O1        1.0  0.80071  0.28115  0.60149  1.0000
  O   O2        1.0  0.30085  0.78116  0.10152  1.0000
  O   O3        1.0  0.60147  0.80089  0.28114  1.0000
  O   O4        1.0  0.10151  0.30067  0.78100  1.0000
  O   O5        1.0  0.21972  0.39922  0.30069  1.0000
  O   O6        1.0  0.71981  0.89929  0.80078  1.0000
  O   O7        1.0  0.20002  0.78101  0.89929  1.0000
  O   O8        1.0  0.69999  0.28111  0.39917  1.0000
  O   O9        1.0  0.35161  0.46966  0.05084  1.0000
  O   O10       1.0  0.85162  0.96967  0.55071  1.0000
  O   O11       1.0  0.60158  0.19997  0.21970  1.0000
  O   O12       1.0  0.10159  0.70001  0.71969  1.0000
  O   O13       1.0  0.64930  0.03119  0.05072  1.0000
  O   O14       1.0  0.14922  0.53116  0.55081  1.0000
  O   O15       1.0  0.28115  0.60158  0.80081  1.0000
  O   O16       1.0  0.78106  0.10162  0.30077  1.0000
  O   O17       1.0  0.35150  0.53102  0.44996  1.0000
  O   O18       1.0  0.85163  0.03112  0.95012  1.0000
  O   O19       1.0  0.05070  0.64919  0.03105  1.0000
  O   O20       1.0  0.55073  0.14921  0.53104  1.0000
  O   O21       1.0  0.46960  0.05076  0.35163  1.0000
  O   O22       1.0  0.96972  0.55078  0.85157  1.0000
  O   O23       1.0  0.46973  0.95018  0.14923  1.0000
  O   O24       1.0  0.96971  0.45006  0.64919  1.0000
  O   O25       1.0  0.95006  0.14922  0.46967  1.0000
  O   O26       1.0  0.45013  0.64921  0.96976  1.0000
  O   O27       1.0  0.03114  0.05072  0.64923  1.0000
  O   O28       1.0  0.53105  0.55077  0.14929  1.0000
  O   O29       1.0  0.44987  0.35146  0.53110  1.0000
  O   O30       1.0  0.94992  0.85154  0.03111  1.0000
  O   O31       1.0  0.53098  0.44995  0.35156  1.0000
  O   O32       1.0  0.03099  0.95003  0.85159  1.0000
  O   O33       1.0  0.05073  0.35161  0.46963  1.0000
  O   O34       1.0  0.55073  0.85168  0.96969  1.0000
  O   O35       1.0  0.30079  0.21960  0.39915  1.0000
  O   O36       1.0  0.80077  0.71965  0.89923  1.0000
  O   O37       1.0  0.20007  0.21977  0.60147  1.0000
  O   O38       1.0  0.69995  0.71979  0.10157  1.0000
  O   O39       1.0  0.14918  0.96969  0.05075  1.0000
  O   O40       1.0  0.64912  0.46966  0.55079  1.0000
  O   O41       1.0  0.89923  0.20007  0.78098  1.0000
  O   O42       1.0  0.39914  0.70014  0.28108  1.0000
  O   O43       1.0  0.78104  0.89925  0.20010  1.0000
  O   O44       1.0  0.28102  0.39919  0.70004  1.0000
  O   O45       1.0  0.21970  0.60160  0.19992  1.0000
  O   O46       1.0  0.71981  0.10160  0.69988  1.0000
  O   O47       1.0  0.14927  0.46975  0.95006  1.0000
  O   O48       1.0  0.64924  0.96976  0.44994  1.0000
  O   O49       1.0  0.70021  0.21970  0.89920  1.0000
  O   O50       1.0  0.20004  0.71972  0.39926  1.0000
  O   O51       1.0  0.89912  0.70004  0.21973  1.0000
  O   O52       1.0  0.39920  0.19994  0.71974  1.0000
  O   O53       1.0  0.28113  0.10153  0.19979  1.0000
  O   O54       1.0  0.78109  0.60159  0.69996  1.0000
  O   O55       1.0  0.30086  0.71970  0.60161  1.0000
  O   O56       1.0  0.80079  0.21986  0.10160  1.0000
  O   O57       1.0  0.14924  0.03104  0.45001  1.0000
  O   O58       1.0  0.64924  0.53107  0.95009  1.0000
  O   O59       1.0  0.89929  0.30073  0.28111  1.0000
  O   O60       1.0  0.39929  0.80078  0.78119  1.0000
  O   O61       1.0  0.85149  0.46979  0.44999  1.0000
  O   O62       1.0  0.35150  0.96985  0.94992  1.0000
  O   O63       1.0  0.21969  0.89916  0.70023  1.0000
  O   O64       1.0  0.71969  0.39928  0.20016  1.0000
  O   O65       1.0  0.35149  0.03101  0.55085  1.0000
  O   O66       1.0  0.85154  0.53111  0.05086  1.0000
  O   O67       1.0  0.28099  0.89933  0.30080  1.0000
  O   O68       1.0  0.78106  0.39924  0.80077  1.0000
  O   O69       1.0  0.71958  0.60164  0.30079  1.0000
  O   O70       1.0  0.21966  0.10159  0.80081  1.0000
  O   O71       1.0  0.10168  0.19993  0.28111  1.0000
  O   O72       1.0  0.60162  0.70001  0.78112  1.0000
  O   O73       1.0  0.60153  0.30069  0.71971  1.0000
  O   O74       1.0  0.10154  0.80076  0.21966  1.0000
  O   O75       1.0  0.30075  0.28108  0.89923  1.0000
  O   O76       1.0  0.80067  0.78105  0.39926  1.0000
  O   O77       1.0  0.19996  0.28108  0.10156  1.0000
  O   O78       1.0  0.69993  0.78116  0.60156  1.0000
  O   O79       1.0  0.45009  0.14925  0.03100  1.0000
  O   O80       1.0  0.94993  0.64923  0.53111  1.0000
  O   O81       1.0  0.96970  0.05083  0.14930  1.0000
  O   O82       1.0  0.46969  0.55067  0.64923  1.0000
  O   O83       1.0  0.05071  0.14919  0.96970  1.0000
  O   O84       1.0  0.55063  0.64919  0.46971  1.0000
  O   O85       1.0  0.46974  0.45003  0.85156  1.0000
  O   O86       1.0  0.96972  0.94998  0.35155  1.0000
  O   O87       1.0  0.55092  0.35150  0.03104  1.0000
  O   O88       1.0  0.05081  0.85154  0.53101  1.0000
  O   O89       1.0  0.03112  0.55084  0.35160  1.0000
  O   O90       1.0  0.53121  0.05083  0.85153  1.0000
  O   O91       1.0  0.03100  0.45007  0.14933  1.0000
  O   O92       1.0  0.53115  0.95007  0.64923  1.0000
  O   O93       1.0  0.45007  0.85161  0.46980  1.0000
  O   O94       1.0  0.95013  0.35162  0.96970  1.0000
  O   O95       1.0  0.39927  0.30072  0.21963  1.0000
  O   O96       1.0  0.89922  0.80074  0.71962  1.0000
