data_image0
_chemical_formula_structural       Ba20Nb16O60
_chemical_formula_sum              "Ba20 Nb16 O60"
_cell_length_a       11.7088
_cell_length_b       10.1402
_cell_length_c       11.8987
_cell_angle_alpha    89.9974
_cell_angle_beta     90.0017
_cell_angle_gamma    89.9967

_space_group_name_H-M_alt    "P 1"
_space_group_IT_number       1

loop_
  _space_group_symop_operation_xyz
  'x, y, z'

loop_
  _atom_site_type_symbol
  _atom_site_label
  _atom_site_symmetry_multiplicity
  _atom_site_fract_x
  _atom_site_fract_y
  _atom_site_fract_z
  _atom_site_occupancy
  Ba  Ba1       1.0  0.25032  0.83390  0.57109  1.0000
  Ba  Ba2       1.0  0.50030  0.33385  0.57095  1.0000
  Ba  Ba3       1.0  0.75028  0.83369  0.57096  1.0000
  Ba  Ba4       1.0  0.00035  0.33395  0.57102  1.0000
  Ba  Ba5       1.0  0.25033  0.16723  0.42978  1.0000
  Ba  Ba6       1.0  0.50030  0.66720  0.42971  1.0000
  Ba  Ba7       1.0  0.75047  0.16716  0.42993  1.0000
  Ba  Ba8       1.0  0.00034  0.66716  0.42984  1.0000
  Ba  Ba9       1.0  0.25045  0.83391  0.20941  1.0000
  Ba  Ba10      1.0  0.50036  0.33378  0.20942  1.0000
  Ba  Ba11      1.0  0.75039  0.83380  0.20934  1.0000
  Ba  Ba12      1.0  0.00045  0.33395  0.20942  1.0000
  Ba  Ba13      1.0  0.25042  0.16715  0.79134  1.0000
  Ba  Ba14      1.0  0.50037  0.66715  0.79137  1.0000
  Ba  Ba15      1.0  0.75038  0.16722  0.79144  1.0000
  Ba  Ba16      1.0  0.00033  0.66730  0.79144  1.0000
  Ba  Ba17      1.0  0.00047  0.00057  0.00037  1.0000
  Ba  Ba18      1.0  0.25039  0.50060  0.00035  1.0000
  Ba  Ba19      1.0  0.50036  0.00050  0.00049  1.0000
  Ba  Ba20      1.0  0.75049  0.50041  0.00037  1.0000
  Nb  Nb1       1.0  0.25044  0.83385  0.89522  1.0000
  Nb  Nb2       1.0  0.50037  0.33380  0.89520  1.0000
  Nb  Nb3       1.0  0.75035  0.83387  0.89524  1.0000
  Nb  Nb4       1.0  0.00042  0.33386  0.89525  1.0000
  Nb  Nb5       1.0  0.25040  0.16728  0.10557  1.0000
  Nb  Nb6       1.0  0.50040  0.66711  0.10549  1.0000
  Nb  Nb7       1.0  0.75042  0.16710  0.10565  1.0000
  Nb  Nb8       1.0  0.00041  0.66726  0.10552  1.0000
  Nb  Nb9       1.0  0.00038  0.00050  0.31739  1.0000
  Nb  Nb10      1.0  0.25040  0.50069  0.31739  1.0000
  Nb  Nb11      1.0  0.50035  0.00045  0.31745  1.0000
  Nb  Nb12      1.0  0.75036  0.50043  0.31735  1.0000
  Nb  Nb13      1.0  0.00040  0.00057  0.68340  1.0000
  Nb  Nb14      1.0  0.25028  0.50055  0.68339  1.0000
  Nb  Nb15      1.0  0.50042  0.00049  0.68340  1.0000
  Nb  Nb16      1.0  0.75033  0.50050  0.68340  1.0000
  O   O1        1.0  0.25039  0.66480  0.38826  1.0000
  O   O2        1.0  0.50024  0.16462  0.38823  1.0000
  O   O3        1.0  0.75034  0.66461  0.38811  1.0000
  O   O4        1.0  0.00025  0.16473  0.38808  1.0000
  O   O5        1.0  0.37735  0.91818  0.38829  1.0000
  O   O6        1.0  0.62718  0.41844  0.38817  1.0000
  O   O7        1.0  0.87735  0.91822  0.38819  1.0000
  O   O8        1.0  0.12715  0.41862  0.38806  1.0000
  O   O9        1.0  0.12363  0.91859  0.38814  1.0000
  O   O10       1.0  0.37339  0.41843  0.38824  1.0000
  O   O11       1.0  0.62361  0.91846  0.38809  1.0000
  O   O12       1.0  0.87345  0.41840  0.38827  1.0000
  O   O13       1.0  0.37721  0.08252  0.61266  1.0000
  O   O14       1.0  0.62718  0.58260  0.61263  1.0000
  O   O15       1.0  0.87729  0.08290  0.61272  1.0000
  O   O16       1.0  0.12702  0.58259  0.61271  1.0000
  O   O17       1.0  0.12350  0.08252  0.61241  1.0000
  O   O18       1.0  0.37332  0.58274  0.61254  1.0000
  O   O19       1.0  0.62350  0.08281  0.61272  1.0000
  O   O20       1.0  0.87341  0.58268  0.61265  1.0000
  O   O21       1.0  0.25027  0.33633  0.61263  1.0000
  O   O22       1.0  0.50070  0.83632  0.61258  1.0000
  O   O23       1.0  0.75047  0.33640  0.61256  1.0000
  O   O24       1.0  0.00027  0.83639  0.61260  1.0000
  O   O25       1.0  0.25036  0.66951  0.80812  1.0000
  O   O26       1.0  0.50030  0.16943  0.80822  1.0000
  O   O27       1.0  0.75028  0.66951  0.80823  1.0000
  O   O28       1.0  0.00055  0.16951  0.80819  1.0000
  O   O29       1.0  0.37376  0.91582  0.80811  1.0000
  O   O30       1.0  0.62362  0.41585  0.80809  1.0000
  O   O31       1.0  0.87361  0.91598  0.80816  1.0000
  O   O32       1.0  0.12356  0.41604  0.80812  1.0000
  O   O33       1.0  0.12731  0.91604  0.80799  1.0000
  O   O34       1.0  0.37711  0.41593  0.80812  1.0000
  O   O35       1.0  0.62717  0.91621  0.80829  1.0000
  O   O36       1.0  0.87709  0.41590  0.80820  1.0000
  O   O37       1.0  0.12538  0.75068  0.00032  1.0000
  O   O38       1.0  0.37535  0.25056  0.00042  1.0000
  O   O39       1.0  0.62533  0.75048  0.00038  1.0000
  O   O40       1.0  0.87545  0.25053  0.00049  1.0000
  O   O41       1.0  0.12545  0.25062  0.00042  1.0000
  O   O42       1.0  0.37529  0.75035  0.00041  1.0000
  O   O43       1.0  0.62535  0.25047  0.00044  1.0000
  O   O44       1.0  0.87535  0.75033  0.00036  1.0000
  O   O45       1.0  0.25053  0.00051  0.00036  1.0000
  O   O46       1.0  0.50039  0.50051  0.00033  1.0000
  O   O47       1.0  0.75055  0.00036  0.00053  1.0000
  O   O48       1.0  0.00052  0.50060  0.00039  1.0000
  O   O49       1.0  0.25046  0.33159  0.19261  1.0000
  O   O50       1.0  0.50029  0.83144  0.19263  1.0000
  O   O51       1.0  0.75052  0.33142  0.19274  1.0000
  O   O52       1.0  0.00047  0.83164  0.19245  1.0000
  O   O53       1.0  0.12715  0.08517  0.19262  1.0000
  O   O54       1.0  0.37726  0.58499  0.19274  1.0000
  O   O55       1.0  0.62717  0.08504  0.19271  1.0000
  O   O56       1.0  0.87730  0.58505  0.19272  1.0000
  O   O57       1.0  0.37358  0.08502  0.19277  1.0000
  O   O58       1.0  0.62365  0.58499  0.19248  1.0000
  O   O59       1.0  0.87355  0.08493  0.19276  1.0000
  O   O60       1.0  0.12376  0.58526  0.19260  1.0000
