data_image0
_chemical_formula_structural       Mg24Ga48O96
_chemical_formula_sum              "Mg24 Ga48 O96"
_cell_length_a       11.6988
_cell_length_b       10.0882
_cell_length_c       14.4003
_cell_angle_alpha    89.7327
_cell_angle_beta     89.4123
_cell_angle_gamma    89.7035

_space_group_name_H-M_alt    "P 1"
_space_group_IT_number       1

loop_
  _space_group_symop_operation_xyz
  'x, y, z'

loop_
  _atom_site_type_symbol
  _atom_site_label
  _atom_site_symmetry_multiplicity
  _atom_site_fract_x
  _atom_site_fract_y
  _atom_site_fract_z
  _atom_site_occupancy
  Mg  Mg1       1.0  0.37537  0.75026  0.87540  1.0000
  Mg  Mg2       1.0  0.37547  0.08381  0.54202  1.0000
  Mg  Mg3       1.0  0.62538  0.25027  0.87539  1.0000
  Mg  Mg4       1.0  0.37539  0.41729  0.20868  1.0000
  Mg  Mg5       1.0  0.62551  0.58391  0.54202  1.0000
  Mg  Mg6       1.0  0.87539  0.75024  0.87537  1.0000
  Mg  Mg7       1.0  0.62539  0.91729  0.20863  1.0000
  Mg  Mg8       1.0  0.87548  0.08387  0.54200  1.0000
  Mg  Mg9       1.0  0.12539  0.25025  0.87539  1.0000
  Mg  Mg10      1.0  0.87538  0.41729  0.20864  1.0000
  Mg  Mg11      1.0  0.12551  0.58384  0.54201  1.0000
  Mg  Mg12      1.0  0.12538  0.91729  0.20865  1.0000
  Mg  Mg13      1.0  0.50040  0.50035  0.87535  1.0000
  Mg  Mg14      1.0  0.50041  0.83387  0.54198  1.0000
  Mg  Mg15      1.0  0.75043  0.00032  0.87537  1.0000
  Mg  Mg16      1.0  0.50035  0.16730  0.20869  1.0000
  Mg  Mg17      1.0  0.75041  0.33387  0.54200  1.0000
  Mg  Mg18      1.0  0.00041  0.50031  0.87535  1.0000
  Mg  Mg19      1.0  0.75034  0.66730  0.20871  1.0000
  Mg  Mg20      1.0  0.00040  0.83383  0.54197  1.0000
  Mg  Mg21      1.0  0.25042  0.00033  0.87538  1.0000
  Mg  Mg22      1.0  0.00033  0.16729  0.20870  1.0000
  Mg  Mg23      1.0  0.25044  0.33381  0.54199  1.0000
  Mg  Mg24      1.0  0.25033  0.66727  0.20872  1.0000
  Ga  Ga1       1.0  0.74604  0.83067  0.67008  1.0000
  Ga  Ga2       1.0  0.74589  0.16404  0.33681  1.0000
  Ga  Ga3       1.0  0.99605  0.33063  0.67008  1.0000
  Ga  Ga4       1.0  0.74581  0.49743  0.00336  1.0000
  Ga  Ga5       1.0  0.99589  0.66403  0.33680  1.0000
  Ga  Ga6       1.0  0.24602  0.83060  0.67010  1.0000
  Ga  Ga7       1.0  0.99582  0.99745  0.00337  1.0000
  Ga  Ga8       1.0  0.24590  0.16400  0.33680  1.0000
  Ga  Ga9       1.0  0.49604  0.33066  0.67009  1.0000
  Ga  Ga10      1.0  0.24579  0.49746  0.00338  1.0000
  Ga  Ga11      1.0  0.49590  0.66403  0.33681  1.0000
  Ga  Ga12      1.0  0.49583  0.99745  0.00335  1.0000
  Ga  Ga13      1.0  0.25511  0.50330  0.74738  1.0000
  Ga  Ga14      1.0  0.25501  0.83700  0.41404  1.0000
  Ga  Ga15      1.0  0.50513  0.00334  0.74739  1.0000
  Ga  Ga16      1.0  0.25498  0.17039  0.08071  1.0000
  Ga  Ga17      1.0  0.50503  0.33702  0.41406  1.0000
  Ga  Ga18      1.0  0.75510  0.50333  0.74737  1.0000
  Ga  Ga19      1.0  0.50498  0.67041  0.08070  1.0000
  Ga  Ga20      1.0  0.75499  0.83704  0.41405  1.0000
  Ga  Ga21      1.0  0.00513  0.00330  0.74737  1.0000
  Ga  Ga22      1.0  0.75496  0.17039  0.08069  1.0000
  Ga  Ga23      1.0  0.00501  0.33701  0.41404  1.0000
  Ga  Ga24      1.0  0.00498  0.67038  0.08070  1.0000
  Ga  Ga25      1.0  0.50062  0.66720  0.70867  1.0000
  Ga  Ga26      1.0  0.50044  0.00059  0.37526  1.0000
  Ga  Ga27      1.0  0.75067  0.16717  0.70867  1.0000
  Ga  Ga28      1.0  0.50049  0.33382  0.04205  1.0000
  Ga  Ga29      1.0  0.75043  0.50058  0.37527  1.0000
  Ga  Ga30      1.0  0.00063  0.66713  0.70865  1.0000
  Ga  Ga31      1.0  0.75057  0.83375  0.04204  1.0000
  Ga  Ga32      1.0  0.00043  0.00058  0.37526  1.0000
  Ga  Ga33      1.0  0.25065  0.16712  0.70867  1.0000
  Ga  Ga34      1.0  0.00052  0.33378  0.04204  1.0000
  Ga  Ga35      1.0  0.25044  0.50055  0.37528  1.0000
  Ga  Ga36      1.0  0.25053  0.83378  0.04205  1.0000
  Ga  Ga37      1.0  0.62537  0.75040  0.87534  1.0000
  Ga  Ga38      1.0  0.62549  0.08373  0.54209  1.0000
  Ga  Ga39      1.0  0.87538  0.25038  0.87534  1.0000
  Ga  Ga40      1.0  0.62540  0.41726  0.20870  1.0000
  Ga  Ga41      1.0  0.87552  0.58368  0.54206  1.0000
  Ga  Ga42      1.0  0.12536  0.75039  0.87534  1.0000
  Ga  Ga43      1.0  0.87538  0.91727  0.20872  1.0000
  Ga  Ga44      1.0  0.12550  0.08366  0.54208  1.0000
  Ga  Ga45      1.0  0.37536  0.25041  0.87535  1.0000
  Ga  Ga46      1.0  0.12539  0.41723  0.20872  1.0000
  Ga  Ga47      1.0  0.37554  0.58368  0.54207  1.0000
  Ga  Ga48      1.0  0.37540  0.91724  0.20870  1.0000
  O   O1        1.0  0.38406  0.58910  0.79124  1.0000
  O   O2        1.0  0.38401  0.92261  0.45788  1.0000
  O   O3        1.0  0.63409  0.08909  0.79125  1.0000
  O   O4        1.0  0.38395  0.25602  0.12462  1.0000
  O   O5        1.0  0.63401  0.42266  0.45791  1.0000
  O   O6        1.0  0.88407  0.58907  0.79123  1.0000
  O   O7        1.0  0.63398  0.75599  0.12459  1.0000
  O   O8        1.0  0.88400  0.92263  0.45789  1.0000
  O   O9        1.0  0.13408  0.08906  0.79125  1.0000
  O   O10       1.0  0.88395  0.25600  0.12459  1.0000
  O   O11       1.0  0.13403  0.42259  0.45791  1.0000
  O   O12       1.0  0.13396  0.75600  0.12461  1.0000
  O   O13       1.0  0.50382  0.66960  0.95149  1.0000
  O   O14       1.0  0.50384  0.00308  0.61818  1.0000
  O   O15       1.0  0.75381  0.16958  0.95149  1.0000
  O   O16       1.0  0.50378  0.33658  0.28483  1.0000
  O   O17       1.0  0.75385  0.50309  0.61816  1.0000
  O   O18       1.0  0.00381  0.66957  0.95149  1.0000
  O   O19       1.0  0.75375  0.83660  0.28482  1.0000
  O   O20       1.0  0.00383  0.00305  0.61816  1.0000
  O   O21       1.0  0.25381  0.16960  0.95151  1.0000
  O   O22       1.0  0.00376  0.33658  0.28481  1.0000
  O   O23       1.0  0.25387  0.50304  0.61816  1.0000
  O   O24       1.0  0.25376  0.83658  0.28481  1.0000
  O   O25       1.0  0.50360  0.82625  0.79257  1.0000
  O   O26       1.0  0.50364  0.15978  0.45917  1.0000
  O   O27       1.0  0.75361  0.32624  0.79256  1.0000
  O   O28       1.0  0.50361  0.49317  0.12583  1.0000
  O   O29       1.0  0.75367  0.65979  0.45916  1.0000
  O   O30       1.0  0.00361  0.82621  0.79255  1.0000
  O   O31       1.0  0.75363  0.99315  0.12581  1.0000
  O   O32       1.0  0.00366  0.15977  0.45916  1.0000
  O   O33       1.0  0.25360  0.32621  0.79256  1.0000
  O   O34       1.0  0.00362  0.49315  0.12582  1.0000
  O   O35       1.0  0.25368  0.65976  0.45917  1.0000
  O   O36       1.0  0.25363  0.99315  0.12582  1.0000
  O   O37       1.0  0.62131  0.59047  0.79224  1.0000
  O   O38       1.0  0.62123  0.92405  0.45887  1.0000
  O   O39       1.0  0.87134  0.09044  0.79225  1.0000
  O   O40       1.0  0.62121  0.25734  0.12559  1.0000
  O   O41       1.0  0.87124  0.42401  0.45887  1.0000
  O   O42       1.0  0.12132  0.59043  0.79224  1.0000
  O   O43       1.0  0.87124  0.75732  0.12562  1.0000
  O   O44       1.0  0.12123  0.92399  0.45886  1.0000
  O   O45       1.0  0.37133  0.09044  0.79227  1.0000
  O   O46       1.0  0.12122  0.25731  0.12561  1.0000
  O   O47       1.0  0.37125  0.42400  0.45889  1.0000
  O   O48       1.0  0.37122  0.75730  0.12561  1.0000
  O   O49       1.0  0.62954  0.91025  0.95851  1.0000
  O   O50       1.0  0.62973  0.24369  0.62520  1.0000
  O   O51       1.0  0.87952  0.41025  0.95850  1.0000
  O   O52       1.0  0.62960  0.57712  0.29183  1.0000
  O   O53       1.0  0.87972  0.74366  0.62517  1.0000
  O   O54       1.0  0.12952  0.91026  0.95852  1.0000
  O   O55       1.0  0.87960  0.07713  0.29184  1.0000
  O   O56       1.0  0.12974  0.24363  0.62518  1.0000
  O   O57       1.0  0.37950  0.41029  0.95851  1.0000
  O   O58       1.0  0.12960  0.57709  0.29185  1.0000
  O   O59       1.0  0.37972  0.74367  0.62517  1.0000
  O   O60       1.0  0.37961  0.07711  0.29182  1.0000
  O   O61       1.0  0.74718  0.67455  0.95823  1.0000
  O   O62       1.0  0.74731  0.00788  0.62493  1.0000
  O   O63       1.0  0.99716  0.17456  0.95824  1.0000
  O   O64       1.0  0.74722  0.34127  0.29157  1.0000
  O   O65       1.0  0.99733  0.50783  0.62491  1.0000
  O   O66       1.0  0.24714  0.67457  0.95825  1.0000
  O   O67       1.0  0.99721  0.84126  0.29157  1.0000
  O   O68       1.0  0.24730  0.00781  0.62493  1.0000
  O   O69       1.0  0.49715  0.17459  0.95825  1.0000
  O   O70       1.0  0.24722  0.34124  0.29159  1.0000
  O   O71       1.0  0.49733  0.50787  0.62493  1.0000
  O   O72       1.0  0.49723  0.84126  0.29156  1.0000
  O   O73       1.0  0.74700  0.83104  0.79928  1.0000
  O   O74       1.0  0.74699  0.16456  0.46597  1.0000
  O   O75       1.0  0.99700  0.33103  0.79928  1.0000
  O   O76       1.0  0.74692  0.49800  0.13257  1.0000
  O   O77       1.0  0.99702  0.66451  0.46596  1.0000
  O   O78       1.0  0.24698  0.83104  0.79930  1.0000
  O   O79       1.0  0.99691  0.99799  0.13259  1.0000
  O   O80       1.0  0.24701  0.16448  0.46597  1.0000
  O   O81       1.0  0.49698  0.33106  0.79929  1.0000
  O   O82       1.0  0.24691  0.49797  0.13260  1.0000
  O   O83       1.0  0.49703  0.66455  0.46597  1.0000
  O   O84       1.0  0.49692  0.99798  0.13257  1.0000
  O   O85       1.0  0.86691  0.91161  0.95943  1.0000
  O   O86       1.0  0.86697  0.24518  0.62608  1.0000
  O   O87       1.0  0.11687  0.41163  0.95943  1.0000
  O   O88       1.0  0.86684  0.57858  0.29273  1.0000
  O   O89       1.0  0.11694  0.74515  0.62608  1.0000
  O   O90       1.0  0.36689  0.91163  0.95944  1.0000
  O   O91       1.0  0.11684  0.07858  0.29273  1.0000
  O   O92       1.0  0.36697  0.24514  0.62609  1.0000
  O   O93       1.0  0.61686  0.41165  0.95943  1.0000
  O   O94       1.0  0.36684  0.57858  0.29276  1.0000
  O   O95       1.0  0.61694  0.74523  0.62609  1.0000
  O   O96       1.0  0.61685  0.07859  0.29272  1.0000
