data_image0
_chemical_formula_structural       Mg32Sn16O64
_chemical_formula_sum              "Mg32 Sn16 O64"
_cell_length_a       12.1999
_cell_length_b       10.7022
_cell_length_c       10.4962
_cell_angle_alpha    99.5575
_cell_angle_beta     106.937
_cell_angle_gamma    91.2824

_space_group_name_H-M_alt    "P 1"
_space_group_IT_number       1

loop_
  _space_group_symop_operation_xyz
  'x, y, z'

loop_
  _atom_site_type_symbol
  _atom_site_label
  _atom_site_symmetry_multiplicity
  _atom_site_fract_x
  _atom_site_fract_y
  _atom_site_fract_z
  _atom_site_occupancy
  Mg  Mg1       1.0  0.50493  0.00355  0.99474  1.0000
  Mg  Mg2       1.0  0.37989  0.25345  0.49471  1.0000
  Mg  Mg3       1.0  0.75494  0.50351  0.99475  1.0000
  Mg  Mg4       1.0  0.62984  0.75349  0.49474  1.0000
  Mg  Mg5       1.0  0.00492  0.00348  0.99475  1.0000
  Mg  Mg6       1.0  0.87990  0.25346  0.49474  1.0000
  Mg  Mg7       1.0  0.25491  0.50349  0.99470  1.0000
  Mg  Mg8       1.0  0.12986  0.75345  0.49473  1.0000
  Mg  Mg9       1.0  0.40241  0.93511  0.63126  1.0000
  Mg  Mg10      1.0  0.27743  0.18517  0.13126  1.0000
  Mg  Mg11      1.0  0.65240  0.43511  0.63123  1.0000
  Mg  Mg12      1.0  0.52739  0.68519  0.13122  1.0000
  Mg  Mg13      1.0  0.90239  0.93510  0.63129  1.0000
  Mg  Mg14      1.0  0.77740  0.18514  0.13128  1.0000
  Mg  Mg15      1.0  0.15239  0.43509  0.63126  1.0000
  Mg  Mg16      1.0  0.02739  0.68514  0.13129  1.0000
  Mg  Mg17      1.0  0.64114  0.09434  0.56302  1.0000
  Mg  Mg18      1.0  0.51621  0.34444  0.06300  1.0000
  Mg  Mg19      1.0  0.89112  0.59427  0.56303  1.0000
  Mg  Mg20      1.0  0.76614  0.84431  0.06303  1.0000
  Mg  Mg21      1.0  0.14115  0.09427  0.56302  1.0000
  Mg  Mg22      1.0  0.01614  0.34429  0.06301  1.0000
  Mg  Mg23      1.0  0.39107  0.59428  0.56295  1.0000
  Mg  Mg24      1.0  0.26617  0.84435  0.06301  1.0000
  Mg  Mg25      1.0  0.82870  0.21924  0.81302  1.0000
  Mg  Mg26      1.0  0.70367  0.46928  0.31305  1.0000
  Mg  Mg27      1.0  0.07871  0.71921  0.81302  1.0000
  Mg  Mg28      1.0  0.95369  0.96923  0.31302  1.0000
  Mg  Mg29      1.0  0.32872  0.21924  0.81307  1.0000
  Mg  Mg30      1.0  0.20364  0.46923  0.31295  1.0000
  Mg  Mg31      1.0  0.57870  0.71921  0.81294  1.0000
  Mg  Mg32      1.0  0.45371  0.96927  0.31303  1.0000
  Sn  Sn1       1.0  0.57872  0.21942  0.81301  1.0000
  Sn  Sn2       1.0  0.45367  0.46941  0.31296  1.0000
  Sn  Sn3       1.0  0.82872  0.71939  0.81300  1.0000
  Sn  Sn4       1.0  0.70370  0.96942  0.31302  1.0000
  Sn  Sn5       1.0  0.07869  0.21936  0.81297  1.0000
  Sn  Sn6       1.0  0.95365  0.46937  0.31299  1.0000
  Sn  Sn7       1.0  0.32872  0.71939  0.81298  1.0000
  Sn  Sn8       1.0  0.20369  0.96939  0.31298  1.0000
  Sn  Sn9       1.0  0.70359  0.96928  0.81296  1.0000
  Sn  Sn10      1.0  0.57858  0.21930  0.31290  1.0000
  Sn  Sn11      1.0  0.95358  0.46925  0.81296  1.0000
  Sn  Sn12      1.0  0.82854  0.71927  0.31299  1.0000
  Sn  Sn13      1.0  0.20358  0.96924  0.81294  1.0000
  Sn  Sn14      1.0  0.07857  0.21926  0.31295  1.0000
  Sn  Sn15      1.0  0.45357  0.46926  0.81285  1.0000
  Sn  Sn16      1.0  0.32854  0.71927  0.31290  1.0000
  O   O1        1.0  0.55480  0.03682  0.69396  1.0000
  O   O2        1.0  0.42982  0.28686  0.19384  1.0000
  O   O3        1.0  0.80480  0.53678  0.69394  1.0000
  O   O4        1.0  0.67979  0.78683  0.19394  1.0000
  O   O5        1.0  0.05479  0.03676  0.69391  1.0000
  O   O6        1.0  0.92979  0.28679  0.19391  1.0000
  O   O7        1.0  0.30477  0.53679  0.69387  1.0000
  O   O8        1.0  0.17978  0.78682  0.19388  1.0000
  O   O9        1.0  0.67200  0.26936  0.69466  1.0000
  O   O10       1.0  0.54699  0.51944  0.19467  1.0000
  O   O11       1.0  0.92200  0.76931  0.69464  1.0000
  O   O12       1.0  0.79699  0.01936  0.19466  1.0000
  O   O13       1.0  0.17199  0.26931  0.69464  1.0000
  O   O14       1.0  0.04693  0.51933  0.19462  1.0000
  O   O15       1.0  0.42198  0.76930  0.69457  1.0000
  O   O16       1.0  0.29701  0.01939  0.19467  1.0000
  O   O17       1.0  0.73055  0.15388  0.92802  1.0000
  O   O18       1.0  0.60551  0.40388  0.42797  1.0000
  O   O19       1.0  0.98055  0.65385  0.92801  1.0000
  O   O20       1.0  0.85552  0.90387  0.42803  1.0000
  O   O21       1.0  0.23054  0.15385  0.92799  1.0000
  O   O22       1.0  0.10550  0.40385  0.42798  1.0000
  O   O23       1.0  0.48057  0.65386  0.92793  1.0000
  O   O24       1.0  0.35553  0.90386  0.42799  1.0000
  O   O25       1.0  0.78780  0.03745  0.69466  1.0000
  O   O26       1.0  0.66282  0.28752  0.19464  1.0000
  O   O27       1.0  0.03779  0.53741  0.69465  1.0000
  O   O28       1.0  0.91277  0.78743  0.19468  1.0000
  O   O29       1.0  0.28782  0.03742  0.69466  1.0000
  O   O30       1.0  0.16277  0.28742  0.19462  1.0000
  O   O31       1.0  0.53776  0.53741  0.69452  1.0000
  O   O32       1.0  0.41279  0.78748  0.19464  1.0000
  O   O33       1.0  0.86947  0.40103  0.93134  1.0000
  O   O34       1.0  0.74443  0.65105  0.43138  1.0000
  O   O35       1.0  0.11948  0.90104  0.93133  1.0000
  O   O36       1.0  0.99446  0.15103  0.43133  1.0000
  O   O37       1.0  0.36949  0.40111  0.93129  1.0000
  O   O38       1.0  0.24440  0.65102  0.43126  1.0000
  O   O39       1.0  0.61946  0.90105  0.93133  1.0000
  O   O40       1.0  0.49448  0.15108  0.43131  1.0000
  O   O41       1.0  0.98549  0.16925  0.93133  1.0000
  O   O42       1.0  0.86046  0.41925  0.43135  1.0000
  O   O43       1.0  0.23553  0.66929  0.93134  1.0000
  O   O44       1.0  0.11049  0.91925  0.43134  1.0000
  O   O45       1.0  0.48554  0.16938  0.93142  1.0000
  O   O46       1.0  0.36043  0.41923  0.43125  1.0000
  O   O47       1.0  0.73550  0.66928  0.93133  1.0000
  O   O48       1.0  0.61050  0.91930  0.43138  1.0000
  O   O49       1.0  0.92682  0.28469  0.69793  1.0000
  O   O50       1.0  0.80180  0.53473  0.19795  1.0000
  O   O51       1.0  0.17684  0.78469  0.69793  1.0000
  O   O52       1.0  0.05182  0.03471  0.19793  1.0000
  O   O53       1.0  0.42683  0.28467  0.69792  1.0000
  O   O54       1.0  0.30179  0.53472  0.19788  1.0000
  O   O55       1.0  0.67684  0.78472  0.69793  1.0000
  O   O56       1.0  0.55184  0.03474  0.19793  1.0000
  O   O57       1.0  0.10245  0.40188  0.93203  1.0000
  O   O58       1.0  0.97740  0.65188  0.43207  1.0000
  O   O59       1.0  0.35248  0.90192  0.93203  1.0000
  O   O60       1.0  0.22742  0.15190  0.43205  1.0000
  O   O61       1.0  0.60246  0.40198  0.93198  1.0000
  O   O62       1.0  0.47738  0.65191  0.43202  1.0000
  O   O63       1.0  0.85246  0.90190  0.93205  1.0000
  O   O64       1.0  0.72743  0.15194  0.43203  1.0000
