data_image0
_chemical_formula_structural       Sr24Nb24O84
_chemical_formula_sum              "Sr24 Nb24 O84"
_cell_length_a       11.9789
_cell_length_b       13.6461
_cell_length_c       11.5152
_cell_angle_alpha    90.0015
_cell_angle_beta     90.0001
_cell_angle_gamma    98.4141

_space_group_name_H-M_alt    "P 1"
_space_group_IT_number       1

loop_
  _space_group_symop_operation_xyz
  'x, y, z'

loop_
  _atom_site_type_symbol
  _atom_site_label
  _atom_site_symmetry_multiplicity
  _atom_site_fract_x
  _atom_site_fract_y
  _atom_site_fract_z
  _atom_site_occupancy
  Sr  Sr1       1.0  0.23649  0.41597  0.01895  1.0000
  Sr  Sr2       1.0  0.23649  0.41611  0.51889  1.0000
  Sr  Sr3       1.0  0.56973  0.41605  0.01883  1.0000
  Sr  Sr4       1.0  0.56983  0.41596  0.51902  1.0000
  Sr  Sr5       1.0  0.90307  0.41597  0.01888  1.0000
  Sr  Sr6       1.0  0.90314  0.41597  0.51894  1.0000
  Sr  Sr7       1.0  0.09794  0.58474  0.26894  1.0000
  Sr  Sr8       1.0  0.09798  0.58466  0.76893  1.0000
  Sr  Sr9       1.0  0.43124  0.58466  0.26889  1.0000
  Sr  Sr10      1.0  0.43127  0.58464  0.76894  1.0000
  Sr  Sr11      1.0  0.76452  0.58470  0.26893  1.0000
  Sr  Sr12      1.0  0.76453  0.58466  0.76888  1.0000
  Sr  Sr13      1.0  0.18434  0.10339  0.23535  1.0000
  Sr  Sr14      1.0  0.18439  0.10352  0.73541  1.0000
  Sr  Sr15      1.0  0.51763  0.10351  0.23549  1.0000
  Sr  Sr16      1.0  0.51768  0.10337  0.73551  1.0000
  Sr  Sr17      1.0  0.85110  0.10357  0.23537  1.0000
  Sr  Sr18      1.0  0.85101  0.10352  0.73532  1.0000
  Sr  Sr19      1.0  0.14998  0.89722  0.48551  1.0000
  Sr  Sr20      1.0  0.14996  0.89713  0.98541  1.0000
  Sr  Sr21      1.0  0.48331  0.89721  0.48529  1.0000
  Sr  Sr22      1.0  0.48336  0.89713  0.98525  1.0000
  Sr  Sr23      1.0  0.81659  0.89709  0.48524  1.0000
  Sr  Sr24      1.0  0.81656  0.89723  0.98533  1.0000
  Nb  Nb1       1.0  0.05439  0.32380  0.25101  1.0000
  Nb  Nb2       1.0  0.05441  0.32383  0.75104  1.0000
  Nb  Nb3       1.0  0.38773  0.32382  0.25106  1.0000
  Nb  Nb4       1.0  0.38772  0.32381  0.75101  1.0000
  Nb  Nb5       1.0  0.72103  0.32381  0.25103  1.0000
  Nb  Nb6       1.0  0.72110  0.32380  0.75105  1.0000
  Nb  Nb7       1.0  0.28002  0.67689  0.00105  1.0000
  Nb  Nb8       1.0  0.27993  0.67689  0.50103  1.0000
  Nb  Nb9       1.0  0.61332  0.67688  0.00108  1.0000
  Nb  Nb10      1.0  0.61323  0.67686  0.50105  1.0000
  Nb  Nb11      1.0  0.94664  0.67688  0.00102  1.0000
  Nb  Nb12      1.0  0.94656  0.67689  0.50103  1.0000
  Nb  Nb13      1.0  0.31457  0.88430  0.23595  1.0000
  Nb  Nb14      1.0  0.31451  0.88431  0.73599  1.0000
  Nb  Nb15      1.0  0.64793  0.88437  0.23597  1.0000
  Nb  Nb16      1.0  0.64789  0.88434  0.73592  1.0000
  Nb  Nb17      1.0  0.98121  0.88435  0.23591  1.0000
  Nb  Nb18      1.0  0.98114  0.88434  0.73599  1.0000
  Nb  Nb19      1.0  0.01988  0.11638  0.48595  1.0000
  Nb  Nb20      1.0  0.01984  0.11638  0.98593  1.0000
  Nb  Nb21      1.0  0.35322  0.11643  0.48598  1.0000
  Nb  Nb22      1.0  0.35318  0.11637  0.98594  1.0000
  Nb  Nb23      1.0  0.68658  0.11641  0.48596  1.0000
  Nb  Nb24      1.0  0.68651  0.11642  0.98600  1.0000
  O   O1        1.0  0.18332  0.09693  0.47299  1.0000
  O   O2        1.0  0.18322  0.09688  0.97291  1.0000
  O   O3        1.0  0.51665  0.09693  0.47298  1.0000
  O   O4        1.0  0.51660  0.09694  0.97288  1.0000
  O   O5        1.0  0.84999  0.09686  0.47291  1.0000
  O   O6        1.0  0.84989  0.09693  0.97298  1.0000
  O   O7        1.0  0.15108  0.90380  0.22284  1.0000
  O   O8        1.0  0.15105  0.90378  0.72298  1.0000
  O   O9        1.0  0.48438  0.90372  0.22308  1.0000
  O   O10       1.0  0.48439  0.90382  0.72309  1.0000
  O   O11       1.0  0.81775  0.90387  0.22288  1.0000
  O   O12       1.0  0.81775  0.90386  0.72290  1.0000
  O   O13       1.0  0.03124  0.18467  0.33268  1.0000
  O   O14       1.0  0.03126  0.18469  0.83270  1.0000
  O   O15       1.0  0.36458  0.18467  0.33267  1.0000
  O   O16       1.0  0.36449  0.18467  0.83265  1.0000
  O   O17       1.0  0.69788  0.18469  0.33277  1.0000
  O   O18       1.0  0.69793  0.18471  0.83275  1.0000
  O   O19       1.0  0.30312  0.81604  0.08265  1.0000
  O   O20       1.0  0.30315  0.81601  0.58275  1.0000
  O   O21       1.0  0.63644  0.81600  0.08270  1.0000
  O   O22       1.0  0.63637  0.81602  0.58268  1.0000
  O   O23       1.0  0.96974  0.81609  0.08264  1.0000
  O   O24       1.0  0.96980  0.81601  0.58275  1.0000
  O   O25       1.0  0.06709  0.39971  0.38413  1.0000
  O   O26       1.0  0.06708  0.39981  0.88409  1.0000
  O   O27       1.0  0.40054  0.39977  0.38411  1.0000
  O   O28       1.0  0.40034  0.39977  0.88408  1.0000
  O   O29       1.0  0.73372  0.39977  0.38410  1.0000
  O   O30       1.0  0.73377  0.39975  0.88411  1.0000
  O   O31       1.0  0.26732  0.60104  0.13419  1.0000
  O   O32       1.0  0.26736  0.60086  0.63404  1.0000
  O   O33       1.0  0.60057  0.60085  0.13407  1.0000
  O   O34       1.0  0.60056  0.60085  0.63405  1.0000
  O   O35       1.0  0.93396  0.60098  0.13410  1.0000
  O   O36       1.0  0.93392  0.60089  0.63405  1.0000
  O   O37       1.0  0.26215  0.56974  0.39531  1.0000
  O   O38       1.0  0.26216  0.56971  0.89541  1.0000
  O   O39       1.0  0.59533  0.56975  0.39535  1.0000
  O   O40       1.0  0.59534  0.56977  0.89534  1.0000
  O   O41       1.0  0.92870  0.56974  0.39532  1.0000
  O   O42       1.0  0.92871  0.56975  0.89530  1.0000
  O   O43       1.0  0.07237  0.43097  0.14535  1.0000
  O   O44       1.0  0.07234  0.43100  0.64540  1.0000
  O   O45       1.0  0.40559  0.43097  0.14535  1.0000
  O   O46       1.0  0.40564  0.43097  0.64535  1.0000
  O   O47       1.0  0.73891  0.43098  0.14537  1.0000
  O   O48       1.0  0.73896  0.43093  0.64534  1.0000
  O   O49       1.0  0.00326  0.01670  0.11302  1.0000
  O   O50       1.0  0.00335  0.01666  0.61294  1.0000
  O   O51       1.0  0.33659  0.01665  0.11295  1.0000
  O   O52       1.0  0.33657  0.01667  0.61299  1.0000
  O   O53       1.0  0.66987  0.01667  0.11297  1.0000
  O   O54       1.0  0.66992  0.01668  0.61297  1.0000
  O   O55       1.0  0.33110  0.98405  0.36298  1.0000
  O   O56       1.0  0.33118  0.98407  0.86297  1.0000
  O   O57       1.0  0.66441  0.98406  0.36304  1.0000
  O   O58       1.0  0.66447  0.98406  0.86302  1.0000
  O   O59       1.0  0.99774  0.98402  0.36296  1.0000
  O   O60       1.0  0.99775  0.98404  0.86303  1.0000
  O   O61       1.0  0.03756  0.22309  0.08739  1.0000
  O   O62       1.0  0.03751  0.22307  0.58747  1.0000
  O   O63       1.0  0.37107  0.22308  0.08739  1.0000
  O   O64       1.0  0.37103  0.22319  0.58731  1.0000
  O   O65       1.0  0.70434  0.22310  0.08749  1.0000
  O   O66       1.0  0.70443  0.22314  0.58739  1.0000
  O   O67       1.0  0.29665  0.77753  0.33732  1.0000
  O   O68       1.0  0.29674  0.77759  0.83744  1.0000
  O   O69       1.0  0.63032  0.77768  0.33744  1.0000
  O   O70       1.0  0.63024  0.77762  0.83732  1.0000
  O   O71       1.0  0.96338  0.77765  0.33741  1.0000
  O   O72       1.0  0.96325  0.77761  0.83740  1.0000
  O   O73       1.0  0.21742  0.30173  0.23340  1.0000
  O   O74       1.0  0.21739  0.30172  0.73335  1.0000
  O   O75       1.0  0.55077  0.30177  0.23337  1.0000
  O   O76       1.0  0.55075  0.30183  0.73341  1.0000
  O   O77       1.0  0.88409  0.30178  0.23339  1.0000
  O   O78       1.0  0.88410  0.30179  0.73342  1.0000
  O   O79       1.0  0.11693  0.69887  0.48335  1.0000
  O   O80       1.0  0.11695  0.69893  0.98327  1.0000
  O   O81       1.0  0.45027  0.69906  0.48328  1.0000
  O   O82       1.0  0.45033  0.69901  0.98335  1.0000
  O   O83       1.0  0.78357  0.69890  0.48341  1.0000
  O   O84       1.0  0.78355  0.69887  0.98341  1.0000
