data_image0
_chemical_formula_structural       Ta16Sn16O56
_chemical_formula_sum              "Ta16 Sn16 O56"
_cell_length_a       10.7028
_cell_length_b       10.7011
_cell_length_c       10.6864
_cell_angle_alpha    90.4221
_cell_angle_beta     89.5255
_cell_angle_gamma    90.5733

_space_group_name_H-M_alt    "P 1"
_space_group_IT_number       1

loop_
  _space_group_symop_operation_xyz
  'x, y, z'

loop_
  _atom_site_type_symbol
  _atom_site_label
  _atom_site_symmetry_multiplicity
  _atom_site_fract_x
  _atom_site_fract_y
  _atom_site_fract_z
  _atom_site_occupancy
  Ta  Ta1       1.0  0.62478  0.62970  0.61800  1.0000
  Ta  Ta2       1.0  0.12123  0.12793  0.62541  1.0000
  Ta  Ta3       1.0  0.12460  0.62848  0.12097  1.0000
  Ta  Ta4       1.0  0.62131  0.12589  0.12264  1.0000
  Ta  Ta5       1.0  0.62056  0.37648  0.37239  1.0000
  Ta  Ta6       1.0  0.11880  0.87598  0.37219  1.0000
  Ta  Ta7       1.0  0.12815  0.38166  0.87246  1.0000
  Ta  Ta8       1.0  0.62320  0.87993  0.87415  1.0000
  Ta  Ta9       1.0  0.36951  0.62938  0.37089  1.0000
  Ta  Ta10      1.0  0.87048  0.13123  0.37160  1.0000
  Ta  Ta11      1.0  0.87166  0.63057  0.87043  1.0000
  Ta  Ta12      1.0  0.36989  0.13055  0.87103  1.0000
  Ta  Ta13      1.0  0.37403  0.37590  0.62059  1.0000
  Ta  Ta14      1.0  0.87307  0.87978  0.62341  1.0000
  Ta  Ta15      1.0  0.87105  0.37815  0.12060  1.0000
  Ta  Ta16      1.0  0.37447  0.87855  0.12190  1.0000
  Sn  Sn1       1.0  0.12355  0.11414  0.14718  1.0000
  Sn  Sn2       1.0  0.62922  0.61539  0.14170  1.0000
  Sn  Sn3       1.0  0.62473  0.10139  0.64526  1.0000
  Sn  Sn4       1.0  0.12725  0.60967  0.63404  1.0000
  Sn  Sn5       1.0  0.13255  0.36889  0.39546  1.0000
  Sn  Sn6       1.0  0.64268  0.87416  0.39656  1.0000
  Sn  Sn7       1.0  0.64703  0.37273  0.88895  1.0000
  Sn  Sn8       1.0  0.14045  0.87456  0.90355  1.0000
  Sn  Sn9       1.0  0.35233  0.10160  0.39197  1.0000
  Sn  Sn10      1.0  0.89334  0.59589  0.36283  1.0000
  Sn  Sn11      1.0  0.90793  0.14621  0.88544  1.0000
  Sn  Sn12      1.0  0.40137  0.60815  0.85368  1.0000
  Sn  Sn13      1.0  0.40276  0.35997  0.12665  1.0000
  Sn  Sn14      1.0  0.88520  0.85729  0.12960  1.0000
  Sn  Sn15      1.0  0.88277  0.37101  0.62619  1.0000
  Sn  Sn16      1.0  0.38302  0.85224  0.62739  1.0000
  O   O1        1.0  0.23127  0.20853  0.30225  1.0000
  O   O2        1.0  0.79220  0.70564  0.25809  1.0000
  O   O3        1.0  0.80677  0.26762  0.78958  1.0000
  O   O4        1.0  0.29143  0.70005  0.73711  1.0000
  O   O5        1.0  0.05061  0.94445  0.05631  1.0000
  O   O6        1.0  0.55541  0.45007  0.05464  1.0000
  O   O7        1.0  0.55068  0.95385  0.54710  1.0000
  O   O8        1.0  0.06504  0.43045  0.57472  1.0000
  O   O9        1.0  0.74196  0.57759  0.74144  1.0000
  O   O10       1.0  0.24093  0.07609  0.74592  1.0000
  O   O11       1.0  0.24090  0.57962  0.24406  1.0000
  O   O12       1.0  0.74010  0.07924  0.24516  1.0000
  O   O13       1.0  0.49282  0.32645  0.49232  1.0000
  O   O14       1.0  0.99011  0.83002  0.49075  1.0000
  O   O15       1.0  0.99096  0.32509  0.99003  1.0000
  O   O16       1.0  0.49089  0.82767  0.99017  1.0000
  O   O17       1.0  0.73911  0.76178  0.55203  1.0000
  O   O18       1.0  0.24519  0.25393  0.55580  1.0000
  O   O19       1.0  0.23917  0.76009  0.05339  1.0000
  O   O20       1.0  0.74171  0.25879  0.05186  1.0000
  O   O21       1.0  0.54965  0.75658  0.74529  1.0000
  O   O22       1.0  0.05737  0.24910  0.75548  1.0000
  O   O23       1.0  0.05235  0.75690  0.24554  1.0000
  O   O24       1.0  0.55202  0.26166  0.24141  1.0000
  O   O25       1.0  0.92085  0.75852  0.74184  1.0000
  O   O26       1.0  0.42396  0.25457  0.73986  1.0000
  O   O27       1.0  0.42160  0.75737  0.24194  1.0000
  O   O28       1.0  0.92453  0.25723  0.23979  1.0000
  O   O29       1.0  0.74380  0.76008  0.92419  1.0000
  O   O30       1.0  0.24818  0.26208  0.92523  1.0000
  O   O31       1.0  0.24269  0.76019  0.42607  1.0000
  O   O32       1.0  0.74306  0.25964  0.42212  1.0000
  O   O33       1.0  0.73964  0.94883  0.73959  1.0000
  O   O34       1.0  0.24995  0.44637  0.74806  1.0000
  O   O35       1.0  0.24480  0.95093  0.24573  1.0000
  O   O36       1.0  0.74634  0.44873  0.24516  1.0000
  O   O37       1.0  0.30434  0.50379  0.48979  1.0000
  O   O38       1.0  0.80399  0.00346  0.48648  1.0000
  O   O39       1.0  0.80142  0.50270  0.98593  1.0000
  O   O40       1.0  0.30407  0.00103  0.98634  1.0000
  O   O41       1.0  0.67164  0.51307  0.48876  1.0000
  O   O42       1.0  0.17722  0.01124  0.49149  1.0000
  O   O43       1.0  0.17437  0.50892  0.99497  1.0000
  O   O44       1.0  0.67318  0.01032  0.99292  1.0000
  O   O45       1.0  0.48608  0.70038  0.49847  1.0000
  O   O46       1.0  0.98848  0.19666  0.49763  1.0000
  O   O47       1.0  0.98634  0.69680  0.99850  1.0000
  O   O48       1.0  0.48632  0.19636  0.00039  1.0000
  O   O49       1.0  0.49645  0.51375  0.30552  1.0000
  O   O50       1.0  0.99840  0.01511  0.30338  1.0000
  O   O51       1.0  0.99897  0.51468  0.80753  1.0000
  O   O52       1.0  0.50033  0.01575  0.80433  1.0000
  O   O53       1.0  0.48962  0.51184  0.67734  1.0000
  O   O54       1.0  0.98899  0.01108  0.67586  1.0000
  O   O55       1.0  0.98604  0.51294  0.17592  1.0000
  O   O56       1.0  0.48967  0.00938  0.17588  1.0000
