data_image0
_chemical_formula_structural       Ba12Y24O48
_chemical_formula_sum              "Ba12 Y24 O48"
_cell_length_a       10.3831
_cell_length_b       10.4362
_cell_length_c       12.1405
_cell_angle_alpha    90
_cell_angle_beta     90
_cell_angle_gamma    90

_space_group_name_H-M_alt    "P 1"
_space_group_IT_number       1

loop_
  _space_group_symop_operation_xyz
  'x, y, z'

loop_
  _atom_site_type_symbol
  _atom_site_label
  _atom_site_symmetry_multiplicity
  _atom_site_fract_x
  _atom_site_fract_y
  _atom_site_fract_z
  _atom_site_occupancy
  Ba  Ba1       1.0  0.08399  0.75368  0.35094  1.0000
  Ba  Ba2       1.0  0.41738  0.75365  0.35103  1.0000
  Ba  Ba3       1.0  0.75071  0.75351  0.35102  1.0000
  Ba  Ba4       1.0  0.25045  0.24738  0.64996  1.0000
  Ba  Ba5       1.0  0.58370  0.24730  0.64979  1.0000
  Ba  Ba6       1.0  0.91719  0.24728  0.64977  1.0000
  Ba  Ba7       1.0  0.08391  0.25376  0.14989  1.0000
  Ba  Ba8       1.0  0.41727  0.25358  0.14978  1.0000
  Ba  Ba9       1.0  0.75059  0.25362  0.14964  1.0000
  Ba  Ba10      1.0  0.25036  0.74716  0.85095  1.0000
  Ba  Ba11      1.0  0.58370  0.74728  0.85098  1.0000
  Ba  Ba12      1.0  0.91715  0.74736  0.85100  1.0000
  Y   Y1        1.0  0.08389  0.42721  0.38929  1.0000
  Y   Y2        1.0  0.41722  0.42713  0.38934  1.0000
  Y   Y3        1.0  0.75061  0.42714  0.38937  1.0000
  Y   Y4        1.0  0.25047  0.57384  0.61141  1.0000
  Y   Y5        1.0  0.58383  0.57378  0.61148  1.0000
  Y   Y6        1.0  0.91718  0.57380  0.61144  1.0000
  Y   Y7        1.0  0.08371  0.92723  0.11157  1.0000
  Y   Y8        1.0  0.41710  0.92712  0.11157  1.0000
  Y   Y9        1.0  0.75041  0.92715  0.11154  1.0000
  Y   Y10       1.0  0.25054  0.07364  0.88939  1.0000
  Y   Y11       1.0  0.58387  0.07368  0.88934  1.0000
  Y   Y12       1.0  0.91730  0.07377  0.88938  1.0000
  Y   Y13       1.0  0.25060  0.07864  0.39164  1.0000
  Y   Y14       1.0  0.58396  0.07861  0.39157  1.0000
  Y   Y15       1.0  0.91717  0.07852  0.39158  1.0000
  Y   Y16       1.0  0.08393  0.92241  0.60910  1.0000
  Y   Y17       1.0  0.41726  0.92242  0.60926  1.0000
  Y   Y18       1.0  0.75059  0.92243  0.60920  1.0000
  Y   Y19       1.0  0.25065  0.57861  0.10926  1.0000
  Y   Y20       1.0  0.58394  0.57851  0.10932  1.0000
  Y   Y21       1.0  0.91722  0.57865  0.10919  1.0000
  Y   Y22       1.0  0.08385  0.42239  0.89171  1.0000
  Y   Y23       1.0  0.41717  0.42241  0.89163  1.0000
  Y   Y24       1.0  0.75058  0.42249  0.89160  1.0000
  O   O1        1.0  0.25054  0.29109  0.34138  1.0000
  O   O2        1.0  0.58401  0.29113  0.34176  1.0000
  O   O3        1.0  0.91727  0.29111  0.34156  1.0000
  O   O4        1.0  0.08382  0.70984  0.65897  1.0000
  O   O5        1.0  0.41722  0.70988  0.65929  1.0000
  O   O6        1.0  0.75046  0.70983  0.65903  1.0000
  O   O7        1.0  0.25043  0.79114  0.15933  1.0000
  O   O8        1.0  0.58377  0.79107  0.15935  1.0000
  O   O9        1.0  0.91703  0.79109  0.15933  1.0000
  O   O10       1.0  0.08392  0.20980  0.84188  1.0000
  O   O11       1.0  0.41721  0.20986  0.84165  1.0000
  O   O12       1.0  0.75054  0.20980  0.84185  1.0000
  O   O13       1.0  0.25062  0.38538  0.01809  1.0000
  O   O14       1.0  0.58391  0.38547  0.01803  1.0000
  O   O15       1.0  0.91723  0.38528  0.01813  1.0000
  O   O16       1.0  0.08387  0.61566  0.98281  1.0000
  O   O17       1.0  0.41726  0.61582  0.98273  1.0000
  O   O18       1.0  0.75062  0.61572  0.98274  1.0000
  O   O19       1.0  0.25071  0.88528  0.48279  1.0000
  O   O20       1.0  0.58395  0.88535  0.48277  1.0000
  O   O21       1.0  0.91725  0.88529  0.48273  1.0000
  O   O22       1.0  0.08392  0.11569  0.51808  1.0000
  O   O23       1.0  0.41721  0.11576  0.51806  1.0000
  O   O24       1.0  0.75059  0.11567  0.51815  1.0000
  O   O25       1.0  0.25056  0.98150  0.71764  1.0000
  O   O26       1.0  0.58390  0.98152  0.71757  1.0000
  O   O27       1.0  0.91730  0.98160  0.71755  1.0000
  O   O28       1.0  0.08386  0.01912  0.28345  1.0000
  O   O29       1.0  0.41724  0.01950  0.28321  1.0000
  O   O30       1.0  0.75051  0.01940  0.28319  1.0000
  O   O31       1.0  0.25044  0.48182  0.78332  1.0000
  O   O32       1.0  0.58383  0.48153  0.78319  1.0000
  O   O33       1.0  0.91725  0.48165  0.78329  1.0000
  O   O34       1.0  0.08390  0.51949  0.21761  1.0000
  O   O35       1.0  0.41730  0.51926  0.21748  1.0000
  O   O36       1.0  0.75061  0.51944  0.21763  1.0000
  O   O37       1.0  0.25039  0.07053  0.07451  1.0000
  O   O38       1.0  0.58380  0.07047  0.07438  1.0000
  O   O39       1.0  0.91715  0.07053  0.07451  1.0000
  O   O40       1.0  0.08383  0.93031  0.92647  1.0000
  O   O41       1.0  0.41702  0.93034  0.92650  1.0000
  O   O42       1.0  0.75058  0.93031  0.92643  1.0000
  O   O43       1.0  0.25059  0.57051  0.42632  1.0000
  O   O44       1.0  0.58378  0.57051  0.42637  1.0000
  O   O45       1.0  0.91732  0.57048  0.42647  1.0000
  O   O46       1.0  0.08386  0.43030  0.57441  1.0000
  O   O47       1.0  0.41704  0.43045  0.57443  1.0000
  O   O48       1.0  0.75047  0.43037  0.57443  1.0000
