data_image0
_chemical_formula_structural       Ba27Zr27O81
_chemical_formula_sum              "Ba27 Zr27 O81"
_cell_length_a       12.6351
_cell_length_b       12.6351
_cell_length_c       12.6351
_cell_angle_alpha    90
_cell_angle_beta     90
_cell_angle_gamma    90

_space_group_name_H-M_alt    "P 1"
_space_group_IT_number       1

loop_
  _space_group_symop_operation_xyz
  'x, y, z'

loop_
  _atom_site_type_symbol
  _atom_site_label
  _atom_site_symmetry_multiplicity
  _atom_site_fract_x
  _atom_site_fract_y
  _atom_site_fract_z
  _atom_site_occupancy
  Ba  Ba1       1.0  0.00023  0.00026  0.00046  1.0000
  Ba  Ba2       1.0  0.00045  0.00042  0.33394  1.0000
  Ba  Ba3       1.0  0.00044  0.00047  0.66723  1.0000
  Ba  Ba4       1.0  0.00052  0.33365  0.00033  1.0000
  Ba  Ba5       1.0  0.00048  0.33373  0.33377  1.0000
  Ba  Ba6       1.0  0.00048  0.33362  0.66697  1.0000
  Ba  Ba7       1.0  0.00028  0.66717  0.00045  1.0000
  Ba  Ba8       1.0  0.00046  0.66705  0.33377  1.0000
  Ba  Ba9       1.0  0.00048  0.66713  0.66707  1.0000
  Ba  Ba10      1.0  0.33370  0.00023  0.00026  1.0000
  Ba  Ba11      1.0  0.33364  0.00039  0.33363  1.0000
  Ba  Ba12      1.0  0.33384  0.00037  0.66694  1.0000
  Ba  Ba13      1.0  0.33365  0.33376  0.00041  1.0000
  Ba  Ba14      1.0  0.33372  0.33385  0.33357  1.0000
  Ba  Ba15      1.0  0.33364  0.33364  0.66717  1.0000
  Ba  Ba16      1.0  0.33382  0.66709  0.00033  1.0000
  Ba  Ba17      1.0  0.33365  0.66708  0.33358  1.0000
  Ba  Ba18      1.0  0.33389  0.66691  0.66712  1.0000
  Ba  Ba19      1.0  0.66705  0.00053  0.00056  1.0000
  Ba  Ba20      1.0  0.66683  0.00039  0.33393  1.0000
  Ba  Ba21      1.0  0.66710  0.00041  0.66720  1.0000
  Ba  Ba22      1.0  0.66715  0.33367  0.00038  1.0000
  Ba  Ba23      1.0  0.66715  0.33372  0.33363  1.0000
  Ba  Ba24      1.0  0.66700  0.33368  0.66696  1.0000
  Ba  Ba25      1.0  0.66722  0.66714  0.00044  1.0000
  Ba  Ba26      1.0  0.66694  0.66702  0.33380  1.0000
  Ba  Ba27      1.0  0.66718  0.66703  0.66711  1.0000
  Zr  Zr1       1.0  0.16702  0.16701  0.16709  1.0000
  Zr  Zr2       1.0  0.16716  0.16701  0.50041  1.0000
  Zr  Zr3       1.0  0.16709  0.16703  0.83380  1.0000
  Zr  Zr4       1.0  0.16707  0.50045  0.16698  1.0000
  Zr  Zr5       1.0  0.16713  0.50040  0.50035  1.0000
  Zr  Zr6       1.0  0.16709  0.50044  0.83368  1.0000
  Zr  Zr7       1.0  0.16696  0.83375  0.16705  1.0000
  Zr  Zr8       1.0  0.16713  0.83369  0.50048  1.0000
  Zr  Zr9       1.0  0.16709  0.83373  0.83372  1.0000
  Zr  Zr10      1.0  0.50030  0.16707  0.16705  1.0000
  Zr  Zr11      1.0  0.50034  0.16703  0.50037  1.0000
  Zr  Zr12      1.0  0.50038  0.16708  0.83378  1.0000
  Zr  Zr13      1.0  0.50040  0.50038  0.16700  1.0000
  Zr  Zr14      1.0  0.50039  0.50034  0.50031  1.0000
  Zr  Zr15      1.0  0.50044  0.50034  0.83371  1.0000
  Zr  Zr16      1.0  0.50035  0.83373  0.16704  1.0000
  Zr  Zr17      1.0  0.50039  0.83371  0.50049  1.0000
  Zr  Zr18      1.0  0.50048  0.83376  0.83377  1.0000
  Zr  Zr19      1.0  0.83375  0.16713  0.16715  1.0000
  Zr  Zr20      1.0  0.83377  0.16705  0.50039  1.0000
  Zr  Zr21      1.0  0.83379  0.16706  0.83374  1.0000
  Zr  Zr22      1.0  0.83377  0.50044  0.16701  1.0000
  Zr  Zr23      1.0  0.83375  0.50040  0.50037  1.0000
  Zr  Zr24      1.0  0.83377  0.50033  0.83365  1.0000
  Zr  Zr25      1.0  0.83362  0.83380  0.16724  1.0000
  Zr  Zr26      1.0  0.83374  0.83379  0.50051  1.0000
  Zr  Zr27      1.0  0.83380  0.83377  0.83377  1.0000
  O   O1        1.0  0.16682  0.00037  0.16718  1.0000
  O   O2        1.0  0.16725  0.00038  0.50038  1.0000
  O   O3        1.0  0.16696  0.00034  0.83385  1.0000
  O   O4        1.0  0.16707  0.33377  0.16707  1.0000
  O   O5        1.0  0.16704  0.33365  0.50025  1.0000
  O   O6        1.0  0.16715  0.33372  0.83375  1.0000
  O   O7        1.0  0.16716  0.66710  0.16714  1.0000
  O   O8        1.0  0.16717  0.66706  0.50046  1.0000
  O   O9        1.0  0.16732  0.66712  0.83360  1.0000
  O   O10       1.0  0.50032  0.00043  0.16700  1.0000
  O   O11       1.0  0.50039  0.00033  0.50054  1.0000
  O   O12       1.0  0.50033  0.00047  0.83394  1.0000
  O   O13       1.0  0.50024  0.33370  0.16716  1.0000
  O   O14       1.0  0.50036  0.33364  0.50022  1.0000
  O   O15       1.0  0.50064  0.33372  0.83372  1.0000
  O   O16       1.0  0.50020  0.66711  0.16695  1.0000
  O   O17       1.0  0.50053  0.66701  0.50029  1.0000
  O   O18       1.0  0.50039  0.66710  0.83383  1.0000
  O   O19       1.0  0.83351  0.00042  0.16719  1.0000
  O   O20       1.0  0.83364  0.00036  0.50043  1.0000
  O   O21       1.0  0.83395  0.00036  0.83384  1.0000
  O   O22       1.0  0.83369  0.33375  0.16700  1.0000
  O   O23       1.0  0.83383  0.33371  0.50043  1.0000
  O   O24       1.0  0.83390  0.33364  0.83365  1.0000
  O   O25       1.0  0.83371  0.66709  0.16699  1.0000
  O   O26       1.0  0.83357  0.66708  0.50042  1.0000
  O   O27       1.0  0.83382  0.66706  0.83384  1.0000
  O   O28       1.0  0.16717  0.16717  0.00043  1.0000
  O   O29       1.0  0.16709  0.16691  0.33373  1.0000
  O   O30       1.0  0.16699  0.16715  0.66714  1.0000
  O   O31       1.0  0.16724  0.50052  0.00035  1.0000
  O   O32       1.0  0.16712  0.50043  0.33366  1.0000
  O   O33       1.0  0.16704  0.50033  0.66704  1.0000
  O   O34       1.0  0.16706  0.83384  0.00042  1.0000
  O   O35       1.0  0.16708  0.83365  0.33378  1.0000
  O   O36       1.0  0.16695  0.83385  0.66713  1.0000
  O   O37       1.0  0.50044  0.16722  0.00041  1.0000
  O   O38       1.0  0.50030  0.16688  0.33372  1.0000
  O   O39       1.0  0.50022  0.16711  0.66709  1.0000
  O   O40       1.0  0.50010  0.50022  0.00034  1.0000
  O   O41       1.0  0.50042  0.50043  0.33364  1.0000
  O   O42       1.0  0.50041  0.50029  0.66698  1.0000
  O   O43       1.0  0.50037  0.83383  0.00035  1.0000
  O   O44       1.0  0.50039  0.83389  0.33374  1.0000
  O   O45       1.0  0.50032  0.83378  0.66712  1.0000
  O   O46       1.0  0.83378  0.16701  0.00045  1.0000
  O   O47       1.0  0.83388  0.16721  0.33380  1.0000
  O   O48       1.0  0.83387  0.16696  0.66711  1.0000
  O   O49       1.0  0.83371  0.50028  0.00032  1.0000
  O   O50       1.0  0.83372  0.50032  0.33371  1.0000
  O   O51       1.0  0.83363  0.50041  0.66708  1.0000
  O   O52       1.0  0.83372  0.83381  0.00055  1.0000
  O   O53       1.0  0.83364  0.83380  0.33386  1.0000
  O   O54       1.0  0.83388  0.83383  0.66720  1.0000
  O   O55       1.0  0.00035  0.16719  0.16714  1.0000
  O   O56       1.0  0.00039  0.16692  0.50048  1.0000
  O   O57       1.0  0.00049  0.16702  0.83381  1.0000
  O   O58       1.0  0.00037  0.50053  0.16692  1.0000
  O   O59       1.0  0.00043  0.50053  0.50030  1.0000
  O   O60       1.0  0.00051  0.50049  0.83369  1.0000
  O   O61       1.0  0.00034  0.83364  0.16717  1.0000
  O   O62       1.0  0.00041  0.83368  0.50047  1.0000
  O   O63       1.0  0.00036  0.83361  0.83390  1.0000
  O   O64       1.0  0.33360  0.16700  0.16717  1.0000
  O   O65       1.0  0.33369  0.16692  0.50049  1.0000
  O   O66       1.0  0.33374  0.16706  0.83373  1.0000
  O   O67       1.0  0.33371  0.50030  0.16716  1.0000
  O   O68       1.0  0.33369  0.50033  0.50035  1.0000
  O   O69       1.0  0.33385  0.50037  0.83346  1.0000
  O   O70       1.0  0.33368  0.83378  0.16702  1.0000
  O   O71       1.0  0.33370  0.83351  0.50056  1.0000
  O   O72       1.0  0.33374  0.83391  0.83374  1.0000
  O   O73       1.0  0.66703  0.16724  0.16712  1.0000
  O   O74       1.0  0.66706  0.16707  0.50041  1.0000
  O   O75       1.0  0.66717  0.16687  0.83357  1.0000
  O   O76       1.0  0.66705  0.50045  0.16686  1.0000
  O   O77       1.0  0.66709  0.50033  0.50025  1.0000
  O   O78       1.0  0.66717  0.50050  0.83371  1.0000
  O   O79       1.0  0.66699  0.83367  0.16704  1.0000
  O   O80       1.0  0.66705  0.83369  0.50064  1.0000
  O   O81       1.0  0.66712  0.83381  0.83366  1.0000
