data_image0
_chemical_formula_structural       Sr40Bi24O96
_chemical_formula_sum              "Sr40 Bi24 O96"
_cell_length_a       11.9187
_cell_length_b       12.2708
_cell_length_c       17.0496
_cell_angle_alpha    90.3905
_cell_angle_beta     89.9965
_cell_angle_gamma    89.9189

_space_group_name_H-M_alt    "P 1"
_space_group_IT_number       1

loop_
  _space_group_symop_operation_xyz
  'x, y, z'

loop_
  _atom_site_type_symbol
  _atom_site_label
  _atom_site_symmetry_multiplicity
  _atom_site_fract_x
  _atom_site_fract_y
  _atom_site_fract_z
  _atom_site_occupancy
  Sr  Sr1       1.0  0.00068  0.00151  0.99760  1.0000
  Sr  Sr2       1.0  0.00018  0.99935  0.50298  1.0000
  Sr  Sr3       1.0  0.00015  0.49930  0.00298  1.0000
  Sr  Sr4       1.0  0.00065  0.50145  0.49761  1.0000
  Sr  Sr5       1.0  0.50024  0.99935  0.00299  1.0000
  Sr  Sr6       1.0  0.50073  0.00151  0.49763  1.0000
  Sr  Sr7       1.0  0.50071  0.50147  0.99762  1.0000
  Sr  Sr8       1.0  0.50017  0.49930  0.50300  1.0000
  Sr  Sr9       1.0  0.00852  0.22278  0.38131  1.0000
  Sr  Sr10      1.0  0.00823  0.22668  0.87594  1.0000
  Sr  Sr11      1.0  0.00822  0.72670  0.37593  1.0000
  Sr  Sr12      1.0  0.00855  0.72281  0.88130  1.0000
  Sr  Sr13      1.0  0.50823  0.22660  0.37590  1.0000
  Sr  Sr14      1.0  0.50845  0.22281  0.88131  1.0000
  Sr  Sr15      1.0  0.50856  0.72284  0.38132  1.0000
  Sr  Sr16      1.0  0.50824  0.72669  0.87593  1.0000
  Sr  Sr17      1.0  0.24744  0.47671  0.37624  1.0000
  Sr  Sr18      1.0  0.24168  0.47562  0.87941  1.0000
  Sr  Sr19      1.0  0.24168  0.97555  0.37934  1.0000
  Sr  Sr20      1.0  0.24749  0.97673  0.87616  1.0000
  Sr  Sr21      1.0  0.74166  0.47557  0.37932  1.0000
  Sr  Sr22      1.0  0.74745  0.47674  0.87625  1.0000
  Sr  Sr23      1.0  0.74748  0.97666  0.37620  1.0000
  Sr  Sr24      1.0  0.74171  0.97558  0.87927  1.0000
  Sr  Sr25      1.0  0.25344  0.02410  0.12440  1.0000
  Sr  Sr26      1.0  0.25920  0.02520  0.62121  1.0000
  Sr  Sr27      1.0  0.25924  0.52527  0.12124  1.0000
  Sr  Sr28      1.0  0.25342  0.52414  0.62446  1.0000
  Sr  Sr29      1.0  0.75922  0.02521  0.12128  1.0000
  Sr  Sr30      1.0  0.75345  0.02406  0.62439  1.0000
  Sr  Sr31      1.0  0.75340  0.52413  0.12443  1.0000
  Sr  Sr32      1.0  0.75917  0.52525  0.62130  1.0000
  Sr  Sr33      1.0  0.49238  0.27799  0.11930  1.0000
  Sr  Sr34      1.0  0.49268  0.27412  0.62470  1.0000
  Sr  Sr35      1.0  0.49268  0.77413  0.12468  1.0000
  Sr  Sr36      1.0  0.49238  0.77801  0.61927  1.0000
  Sr  Sr37      1.0  0.99271  0.27422  0.12469  1.0000
  Sr  Sr38      1.0  0.99244  0.27802  0.61931  1.0000
  Sr  Sr39      1.0  0.99233  0.77801  0.11926  1.0000
  Sr  Sr40      1.0  0.99266  0.77415  0.62470  1.0000
  Bi  Bi1       1.0  0.25045  0.25043  0.25031  1.0000
  Bi  Bi2       1.0  0.25043  0.25040  0.75031  1.0000
  Bi  Bi3       1.0  0.25044  0.75039  0.25028  1.0000
  Bi  Bi4       1.0  0.25046  0.75040  0.75030  1.0000
  Bi  Bi5       1.0  0.75046  0.25041  0.25029  1.0000
  Bi  Bi6       1.0  0.75045  0.25042  0.75030  1.0000
  Bi  Bi7       1.0  0.75043  0.75041  0.25029  1.0000
  Bi  Bi8       1.0  0.75044  0.75039  0.75033  1.0000
  Bi  Bi9       1.0  0.24778  0.24966  0.99985  1.0000
  Bi  Bi10      1.0  0.25312  0.25115  0.50076  1.0000
  Bi  Bi11      1.0  0.25313  0.75115  0.00077  1.0000
  Bi  Bi12      1.0  0.24777  0.74966  0.49983  1.0000
  Bi  Bi13      1.0  0.75313  0.25114  0.00076  1.0000
  Bi  Bi14      1.0  0.74776  0.24967  0.49984  1.0000
  Bi  Bi15      1.0  0.74778  0.74969  0.99980  1.0000
  Bi  Bi16      1.0  0.75313  0.75112  0.50080  1.0000
  Bi  Bi17      1.0  0.00045  0.00039  0.25026  1.0000
  Bi  Bi18      1.0  0.00051  0.00044  0.75029  1.0000
  Bi  Bi19      1.0  0.00043  0.50044  0.25031  1.0000
  Bi  Bi20      1.0  0.00046  0.50044  0.75028  1.0000
  Bi  Bi21      1.0  0.50043  0.00037  0.25030  1.0000
  Bi  Bi22      1.0  0.50042  0.00035  0.75031  1.0000
  Bi  Bi23      1.0  0.50047  0.50041  0.25031  1.0000
  Bi  Bi24      1.0  0.50041  0.50039  0.75031  1.0000
  O   O1        1.0  0.05746  0.47301  0.13795  1.0000
  O   O2        1.0  0.04931  0.48399  0.63519  1.0000
  O   O3        1.0  0.04937  0.98385  0.13517  1.0000
  O   O4        1.0  0.05750  0.97292  0.63794  1.0000
  O   O5        1.0  0.54930  0.48393  0.13520  1.0000
  O   O6        1.0  0.55745  0.47289  0.63799  1.0000
  O   O7        1.0  0.55747  0.97292  0.13797  1.0000
  O   O8        1.0  0.54935  0.98390  0.63522  1.0000
  O   O9        1.0  0.09966  0.36388  0.28696  1.0000
  O   O10       1.0  0.10677  0.35391  0.77824  1.0000
  O   O11       1.0  0.10686  0.85386  0.27831  1.0000
  O   O12       1.0  0.09970  0.86383  0.78695  1.0000
  O   O13       1.0  0.60688  0.35391  0.27830  1.0000
  O   O14       1.0  0.59965  0.36388  0.78701  1.0000
  O   O15       1.0  0.59962  0.86382  0.28694  1.0000
  O   O16       1.0  0.60684  0.85386  0.77833  1.0000
  O   O17       1.0  0.10482  0.33603  0.48354  1.0000
  O   O18       1.0  0.10791  0.34111  0.97091  1.0000
  O   O19       1.0  0.10791  0.84110  0.47092  1.0000
  O   O20       1.0  0.10482  0.83601  0.98355  1.0000
  O   O21       1.0  0.60786  0.34099  0.47091  1.0000
  O   O22       1.0  0.60479  0.33597  0.98356  1.0000
  O   O23       1.0  0.60487  0.83608  0.48356  1.0000
  O   O24       1.0  0.60793  0.84111  0.97093  1.0000
  O   O25       1.0  0.14042  0.10159  0.27837  1.0000
  O   O26       1.0  0.14842  0.10848  0.77884  1.0000
  O   O27       1.0  0.14841  0.60855  0.27891  1.0000
  O   O28       1.0  0.14045  0.60167  0.77844  1.0000
  O   O29       1.0  0.64839  0.10853  0.27884  1.0000
  O   O30       1.0  0.64044  0.10161  0.77841  1.0000
  O   O31       1.0  0.64047  0.60157  0.27836  1.0000
  O   O32       1.0  0.64837  0.60856  0.77884  1.0000
  O   O33       1.0  0.16552  0.10698  0.47937  1.0000
  O   O34       1.0  0.16375  0.10766  0.96914  1.0000
  O   O35       1.0  0.16365  0.60771  0.46912  1.0000
  O   O36       1.0  0.16550  0.60699  0.97938  1.0000
  O   O37       1.0  0.66376  0.10762  0.46917  1.0000
  O   O38       1.0  0.66560  0.10699  0.97929  1.0000
  O   O39       1.0  0.66544  0.60707  0.47927  1.0000
  O   O40       1.0  0.66369  0.60769  0.96913  1.0000
  O   O41       1.0  0.19839  0.22869  0.12030  1.0000
  O   O42       1.0  0.19862  0.23033  0.63152  1.0000
  O   O43       1.0  0.19861  0.73028  0.13157  1.0000
  O   O44       1.0  0.19832  0.72870  0.62032  1.0000
  O   O45       1.0  0.69861  0.23039  0.13155  1.0000
  O   O46       1.0  0.69842  0.22867  0.62029  1.0000
  O   O47       1.0  0.69842  0.72864  0.12029  1.0000
  O   O48       1.0  0.69866  0.73037  0.63155  1.0000
  O   O49       1.0  0.30252  0.27215  0.38032  1.0000
  O   O50       1.0  0.30227  0.27044  0.86908  1.0000
  O   O51       1.0  0.30229  0.77044  0.36904  1.0000
  O   O52       1.0  0.30254  0.77211  0.88027  1.0000
  O   O53       1.0  0.80227  0.27042  0.36905  1.0000
  O   O54       1.0  0.80247  0.27221  0.88031  1.0000
  O   O55       1.0  0.80249  0.77221  0.38031  1.0000
  O   O56       1.0  0.80222  0.77045  0.86908  1.0000
  O   O57       1.0  0.33543  0.39380  0.02125  1.0000
  O   O58       1.0  0.33712  0.39316  0.53149  1.0000
  O   O59       1.0  0.33724  0.89309  0.03149  1.0000
  O   O60       1.0  0.33543  0.89379  0.52124  1.0000
  O   O61       1.0  0.83708  0.39321  0.03143  1.0000
  O   O62       1.0  0.83532  0.39380  0.52129  1.0000
  O   O63       1.0  0.83546  0.89376  0.02133  1.0000
  O   O64       1.0  0.83723  0.89310  0.53151  1.0000
  O   O65       1.0  0.36053  0.39918  0.22220  1.0000
  O   O66       1.0  0.35250  0.39229  0.72180  1.0000
  O   O67       1.0  0.35246  0.89222  0.22173  1.0000
  O   O68       1.0  0.36042  0.89915  0.72220  1.0000
  O   O69       1.0  0.85253  0.39224  0.22175  1.0000
  O   O70       1.0  0.86048  0.39918  0.72215  1.0000
  O   O71       1.0  0.86048  0.89920  0.22219  1.0000
  O   O72       1.0  0.85244  0.89228  0.72186  1.0000
  O   O73       1.0  0.39607  0.16474  0.01705  1.0000
  O   O74       1.0  0.39300  0.15974  0.52968  1.0000
  O   O75       1.0  0.39303  0.65973  0.02967  1.0000
  O   O76       1.0  0.39605  0.66478  0.51706  1.0000
  O   O77       1.0  0.89304  0.15982  0.02968  1.0000
  O   O78       1.0  0.89608  0.16480  0.51705  1.0000
  O   O79       1.0  0.89606  0.66478  0.01703  1.0000
  O   O80       1.0  0.89297  0.65971  0.52969  1.0000
  O   O81       1.0  0.40119  0.13694  0.21369  1.0000
  O   O82       1.0  0.39408  0.14682  0.72232  1.0000
  O   O83       1.0  0.39406  0.64694  0.22229  1.0000
  O   O84       1.0  0.40118  0.63697  0.71360  1.0000
  O   O85       1.0  0.89406  0.14690  0.22225  1.0000
  O   O86       1.0  0.90126  0.13694  0.71358  1.0000
  O   O87       1.0  0.90126  0.63698  0.21363  1.0000
  O   O88       1.0  0.89405  0.64694  0.72227  1.0000
  O   O89       1.0  0.44345  0.02780  0.36266  1.0000
  O   O90       1.0  0.45164  0.01681  0.86542  1.0000
  O   O91       1.0  0.45158  0.51695  0.36540  1.0000
  O   O92       1.0  0.44334  0.52793  0.86265  1.0000
  O   O93       1.0  0.95159  0.01686  0.36539  1.0000
  O   O94       1.0  0.94344  0.02795  0.86261  1.0000
  O   O95       1.0  0.94338  0.52797  0.36263  1.0000
  O   O96       1.0  0.95151  0.51689  0.86538  1.0000
