data_image0
_chemical_formula_structural       Na32Y32O64
_chemical_formula_sum              "Na32 Y32 O64"
_cell_length_a       11.8373
_cell_length_b       10.6245
_cell_length_c       14.7442
_cell_angle_alpha    74.2107
_cell_angle_beta     104.189
_cell_angle_gamma    92.7153

_space_group_name_H-M_alt    "P 1"
_space_group_IT_number       1

loop_
  _space_group_symop_operation_xyz
  'x, y, z'

loop_
  _atom_site_type_symbol
  _atom_site_label
  _atom_site_symmetry_multiplicity
  _atom_site_fract_x
  _atom_site_fract_y
  _atom_site_fract_z
  _atom_site_occupancy
  Na  Na1       1.0  0.17022  0.08923  0.38517  1.0000
  Na  Na2       1.0  0.17026  0.08926  0.88526  1.0000
  Na  Na3       1.0  0.67025  0.08923  0.38520  1.0000
  Na  Na4       1.0  0.67026  0.08932  0.88524  1.0000
  Na  Na5       1.0  0.42027  0.58935  0.63521  1.0000
  Na  Na6       1.0  0.42025  0.58926  0.13521  1.0000
  Na  Na7       1.0  0.92021  0.58928  0.63516  1.0000
  Na  Na8       1.0  0.92024  0.58925  0.13522  1.0000
  Na  Na9       1.0  0.86233  0.47120  0.95907  1.0000
  Na  Na10      1.0  0.86277  0.47179  0.45887  1.0000
  Na  Na11      1.0  0.36243  0.47147  0.95912  1.0000
  Na  Na12      1.0  0.36261  0.47214  0.45857  1.0000
  Na  Na13      1.0  0.11269  0.97207  0.20845  1.0000
  Na  Na14      1.0  0.11180  0.97259  0.70937  1.0000
  Na  Na15      1.0  0.61233  0.97117  0.20910  1.0000
  Na  Na16      1.0  0.61185  0.97284  0.70940  1.0000
  Na  Na17      1.0  0.08013  0.41108  0.86518  1.0000
  Na  Na18      1.0  0.08015  0.41107  0.36519  1.0000
  Na  Na19      1.0  0.58017  0.41110  0.86520  1.0000
  Na  Na20      1.0  0.58017  0.41109  0.36518  1.0000
  Na  Na21      1.0  0.33017  0.91105  0.11518  1.0000
  Na  Na22      1.0  0.33013  0.91106  0.61520  1.0000
  Na  Na23      1.0  0.83020  0.91103  0.11522  1.0000
  Na  Na24      1.0  0.83016  0.91107  0.61523  1.0000
  Na  Na25      1.0  0.38835  0.02962  0.29153  1.0000
  Na  Na26      1.0  0.38836  0.02964  0.79152  1.0000
  Na  Na27      1.0  0.88843  0.02957  0.29149  1.0000
  Na  Na28      1.0  0.88829  0.02955  0.79158  1.0000
  Na  Na29      1.0  0.63841  0.52975  0.54147  1.0000
  Na  Na30      1.0  0.63834  0.52965  0.04150  1.0000
  Na  Na31      1.0  0.14035  0.52734  0.54269  1.0000
  Na  Na32      1.0  0.13835  0.52968  0.04148  1.0000
  Y   Y1        1.0  0.01757  0.28376  0.17602  1.0000
  Y   Y2        1.0  0.01753  0.28380  0.67606  1.0000
  Y   Y3        1.0  0.51760  0.28370  0.17604  1.0000
  Y   Y4        1.0  0.51748  0.28411  0.67590  1.0000
  Y   Y5        1.0  0.26752  0.78373  0.42604  1.0000
  Y   Y6        1.0  0.26756  0.78377  0.92600  1.0000
  Y   Y7        1.0  0.76757  0.78380  0.42601  1.0000
  Y   Y8        1.0  0.76759  0.78369  0.92604  1.0000
  Y   Y9        1.0  0.23361  0.21702  0.07451  1.0000
  Y   Y10       1.0  0.23365  0.21669  0.57458  1.0000
  Y   Y11       1.0  0.73359  0.21686  0.07460  1.0000
  Y   Y12       1.0  0.73362  0.21697  0.57454  1.0000
  Y   Y13       1.0  0.48360  0.71702  0.32455  1.0000
  Y   Y14       1.0  0.48361  0.71698  0.82455  1.0000
  Y   Y15       1.0  0.98374  0.71685  0.32471  1.0000
  Y   Y16       1.0  0.98362  0.71687  0.82457  1.0000
  Y   Y17       1.0  0.95230  0.15351  0.98048  1.0000
  Y   Y18       1.0  0.95234  0.15348  0.48049  1.0000
  Y   Y19       1.0  0.45234  0.15354  0.98051  1.0000
  Y   Y20       1.0  0.45234  0.15360  0.48048  1.0000
  Y   Y21       1.0  0.20232  0.65358  0.23050  1.0000
  Y   Y22       1.0  0.20234  0.65366  0.73052  1.0000
  Y   Y23       1.0  0.70235  0.65356  0.23052  1.0000
  Y   Y24       1.0  0.70232  0.65371  0.73051  1.0000
  Y   Y25       1.0  0.29881  0.34686  0.27027  1.0000
  Y   Y26       1.0  0.29885  0.34686  0.77039  1.0000
  Y   Y27       1.0  0.79881  0.34686  0.27029  1.0000
  Y   Y28       1.0  0.79878  0.34693  0.77026  1.0000
  Y   Y29       1.0  0.54883  0.84696  0.52037  1.0000
  Y   Y30       1.0  0.54881  0.84685  0.02029  1.0000
  Y   Y31       1.0  0.04885  0.84670  0.52037  1.0000
  Y   Y32       1.0  0.04880  0.84680  0.02028  1.0000
  O   O1        1.0  0.83880  0.38571  0.12095  1.0000
  O   O2        1.0  0.83884  0.38573  0.62094  1.0000
  O   O3        1.0  0.33884  0.38572  0.12095  1.0000
  O   O4        1.0  0.33854  0.38597  0.62080  1.0000
  O   O5        1.0  0.08886  0.88575  0.37092  1.0000
  O   O6        1.0  0.08876  0.88579  0.87095  1.0000
  O   O7        1.0  0.58874  0.88580  0.37095  1.0000
  O   O8        1.0  0.58882  0.88583  0.87098  1.0000
  O   O9        1.0  0.19441  0.17769  0.22489  1.0000
  O   O10       1.0  0.19441  0.17776  0.72499  1.0000
  O   O11       1.0  0.69440  0.17761  0.22494  1.0000
  O   O12       1.0  0.69426  0.17790  0.72492  1.0000
  O   O13       1.0  0.44443  0.67772  0.47495  1.0000
  O   O14       1.0  0.44439  0.67768  0.97496  1.0000
  O   O15       1.0  0.94423  0.67780  0.47491  1.0000
  O   O16       1.0  0.94442  0.67759  0.97496  1.0000
  O   O17       1.0  0.41240  0.11469  0.12979  1.0000
  O   O18       1.0  0.41254  0.11477  0.62988  1.0000
  O   O19       1.0  0.91245  0.11472  0.12977  1.0000
  O   O20       1.0  0.91250  0.11465  0.62990  1.0000
  O   O21       1.0  0.66239  0.61474  0.37979  1.0000
  O   O22       1.0  0.66242  0.61472  0.87983  1.0000
  O   O23       1.0  0.16255  0.61455  0.37992  1.0000
  O   O24       1.0  0.16245  0.61472  0.87982  1.0000
  O   O25       1.0  0.05680  0.32284  0.02575  1.0000
  O   O26       1.0  0.05687  0.32266  0.52584  1.0000
  O   O27       1.0  0.55682  0.32282  0.02581  1.0000
  O   O28       1.0  0.55684  0.32292  0.52575  1.0000
  O   O29       1.0  0.30680  0.82284  0.27574  1.0000
  O   O30       1.0  0.30690  0.82286  0.77580  1.0000
  O   O31       1.0  0.80683  0.82283  0.27576  1.0000
  O   O32       1.0  0.80693  0.82281  0.77585  1.0000
  O   O33       1.0  0.28062  0.27103  0.92671  1.0000
  O   O34       1.0  0.28063  0.27101  0.42670  1.0000
  O   O35       1.0  0.78059  0.27097  0.92668  1.0000
  O   O36       1.0  0.78064  0.27098  0.42672  1.0000
  O   O37       1.0  0.53061  0.77099  0.17669  1.0000
  O   O38       1.0  0.53061  0.77117  0.67675  1.0000
  O   O39       1.0  0.03068  0.77101  0.17669  1.0000
  O   O40       1.0  0.03061  0.77105  0.67673  1.0000
  O   O41       1.0  0.12467  0.45933  0.20891  1.0000
  O   O42       1.0  0.12472  0.45930  0.70903  1.0000
  O   O43       1.0  0.62466  0.45932  0.20894  1.0000
  O   O44       1.0  0.62460  0.45948  0.70891  1.0000
  O   O45       1.0  0.37462  0.95941  0.45897  1.0000
  O   O46       1.0  0.37465  0.95941  0.95891  1.0000
  O   O47       1.0  0.87467  0.95937  0.45897  1.0000
  O   O48       1.0  0.87466  0.95931  0.95895  1.0000
  O   O49       1.0  0.97059  0.22939  0.32403  1.0000
  O   O50       1.0  0.97054  0.22939  0.82402  1.0000
  O   O51       1.0  0.47059  0.22938  0.32405  1.0000
  O   O52       1.0  0.47060  0.22949  0.82399  1.0000
  O   O53       1.0  0.22067  0.72923  0.57410  1.0000
  O   O54       1.0  0.22060  0.72941  0.07403  1.0000
  O   O55       1.0  0.72056  0.72948  0.57404  1.0000
  O   O56       1.0  0.72058  0.72940  0.07405  1.0000
  O   O57       1.0  0.12659  0.04114  0.04170  1.0000
  O   O58       1.0  0.12655  0.04106  0.54187  1.0000
  O   O59       1.0  0.62653  0.04108  0.04183  1.0000
  O   O60       1.0  0.62653  0.04119  0.54188  1.0000
  O   O61       1.0  0.37657  0.54111  0.29178  1.0000
  O   O62       1.0  0.37655  0.54111  0.79183  1.0000
  O   O63       1.0  0.87659  0.54109  0.29179  1.0000
  O   O64       1.0  0.87653  0.54109  0.79179  1.0000
