data_image0
_chemical_formula_structural       Na32Ga32O64
_chemical_formula_sum              "Na32 Ga32 O64"
_cell_length_a       10.585
_cell_length_b       11.0388
_cell_length_c       14.3518
_cell_angle_alpha    89.9924
_cell_angle_beta     90.0058
_cell_angle_gamma    90.0149

_space_group_name_H-M_alt    "P 1"
_space_group_IT_number       1

loop_
  _space_group_symop_operation_xyz
  'x, y, z'

loop_
  _atom_site_type_symbol
  _atom_site_label
  _atom_site_symmetry_multiplicity
  _atom_site_fract_x
  _atom_site_fract_y
  _atom_site_fract_z
  _atom_site_occupancy
  Na  Na1       1.0  0.00728  0.03306  0.31205  1.0000
  Na  Na2       1.0  0.00733  0.03308  0.81207  1.0000
  Na  Na3       1.0  0.00728  0.53314  0.31201  1.0000
  Na  Na4       1.0  0.00730  0.53317  0.81207  1.0000
  Na  Na5       1.0  0.50734  0.03310  0.31212  1.0000
  Na  Na6       1.0  0.50737  0.03318  0.81207  1.0000
  Na  Na7       1.0  0.50733  0.53306  0.31209  1.0000
  Na  Na8       1.0  0.50734  0.53313  0.81201  1.0000
  Na  Na9       1.0  0.25731  0.21728  0.06207  1.0000
  Na  Na10      1.0  0.25735  0.21729  0.56208  1.0000
  Na  Na11      1.0  0.25736  0.71735  0.06217  1.0000
  Na  Na12      1.0  0.25737  0.71733  0.56210  1.0000
  Na  Na13      1.0  0.75742  0.21734  0.06210  1.0000
  Na  Na14      1.0  0.75734  0.21735  0.56207  1.0000
  Na  Na15      1.0  0.75731  0.71738  0.06215  1.0000
  Na  Na16      1.0  0.75737  0.71733  0.56213  1.0000
  Na  Na17      1.0  0.25713  0.46726  0.18837  1.0000
  Na  Na18      1.0  0.25710  0.46725  0.68839  1.0000
  Na  Na19      1.0  0.25714  0.96716  0.18848  1.0000
  Na  Na20      1.0  0.25724  0.96726  0.68845  1.0000
  Na  Na21      1.0  0.75708  0.46721  0.18842  1.0000
  Na  Na22      1.0  0.75714  0.46727  0.68837  1.0000
  Na  Na23      1.0  0.75709  0.96725  0.18842  1.0000
  Na  Na24      1.0  0.75706  0.96722  0.68839  1.0000
  Na  Na25      1.0  0.00709  0.28312  0.43845  1.0000
  Na  Na26      1.0  0.00705  0.28314  0.93847  1.0000
  Na  Na27      1.0  0.00699  0.78311  0.43856  1.0000
  Na  Na28      1.0  0.00710  0.78320  0.93869  1.0000
  Na  Na29      1.0  0.50713  0.28315  0.43841  1.0000
  Na  Na30      1.0  0.50734  0.28323  0.93842  1.0000
  Na  Na31      1.0  0.50710  0.78323  0.43855  1.0000
  Na  Na32      1.0  0.50716  0.78314  0.93843  1.0000
  Ga  Ga1       1.0  0.50042  0.03305  0.06326  1.0000
  Ga  Ga2       1.0  0.50034  0.03315  0.56330  1.0000
  Ga  Ga3       1.0  0.50045  0.53310  0.06328  1.0000
  Ga  Ga4       1.0  0.50047  0.53309  0.56328  1.0000
  Ga  Ga5       1.0  0.00054  0.03306  0.06329  1.0000
  Ga  Ga6       1.0  0.00056  0.03300  0.56333  1.0000
  Ga  Ga7       1.0  0.00051  0.53295  0.06333  1.0000
  Ga  Ga8       1.0  0.00046  0.53299  0.56327  1.0000
  Ga  Ga9       1.0  0.25051  0.46804  0.43733  1.0000
  Ga  Ga10      1.0  0.25059  0.46809  0.93735  1.0000
  Ga  Ga11      1.0  0.25047  0.96804  0.43738  1.0000
  Ga  Ga12      1.0  0.25059  0.96808  0.93738  1.0000
  Ga  Ga13      1.0  0.75050  0.46801  0.43732  1.0000
  Ga  Ga14      1.0  0.75056  0.46808  0.93735  1.0000
  Ga  Ga15      1.0  0.75053  0.96806  0.43740  1.0000
  Ga  Ga16      1.0  0.75056  0.96801  0.93737  1.0000
  Ga  Ga17      1.0  0.25043  0.21799  0.31335  1.0000
  Ga  Ga18      1.0  0.25063  0.21813  0.81341  1.0000
  Ga  Ga19      1.0  0.25050  0.71806  0.31339  1.0000
  Ga  Ga20      1.0  0.25043  0.71807  0.81343  1.0000
  Ga  Ga21      1.0  0.75048  0.21801  0.31329  1.0000
  Ga  Ga22      1.0  0.75059  0.21801  0.81327  1.0000
  Ga  Ga23      1.0  0.75042  0.71804  0.31341  1.0000
  Ga  Ga24      1.0  0.75058  0.71809  0.81333  1.0000
  Ga  Ga25      1.0  0.50038  0.28300  0.18734  1.0000
  Ga  Ga26      1.0  0.50046  0.28319  0.68736  1.0000
  Ga  Ga27      1.0  0.50046  0.78302  0.18742  1.0000
  Ga  Ga28      1.0  0.50040  0.78305  0.68739  1.0000
  Ga  Ga29      1.0  0.00051  0.28301  0.18741  1.0000
  Ga  Ga30      1.0  0.00065  0.28296  0.68739  1.0000
  Ga  Ga31      1.0  0.00045  0.78305  0.18747  1.0000
  Ga  Ga32      1.0  0.00054  0.78300  0.68747  1.0000
  O   O1        1.0  0.07713  0.22919  0.29518  1.0000
  O   O2        1.0  0.07736  0.22924  0.79516  1.0000
  O   O3        1.0  0.07722  0.72935  0.29521  1.0000
  O   O4        1.0  0.07713  0.72935  0.79530  1.0000
  O   O5        1.0  0.57720  0.22937  0.29510  1.0000
  O   O6        1.0  0.57733  0.22935  0.79504  1.0000
  O   O7        1.0  0.57720  0.72936  0.29519  1.0000
  O   O8        1.0  0.57729  0.72933  0.79509  1.0000
  O   O9        1.0  0.32710  0.27151  0.20552  1.0000
  O   O10       1.0  0.32719  0.27172  0.70554  1.0000
  O   O11       1.0  0.32722  0.77157  0.20560  1.0000
  O   O12       1.0  0.32716  0.77154  0.70561  1.0000
  O   O13       1.0  0.82723  0.27170  0.20553  1.0000
  O   O14       1.0  0.82736  0.27154  0.70549  1.0000
  O   O15       1.0  0.82720  0.77173  0.20567  1.0000
  O   O16       1.0  0.82725  0.77175  0.70553  1.0000
  O   O17       1.0  0.32719  0.02164  0.04518  1.0000
  O   O18       1.0  0.32709  0.02160  0.54519  1.0000
  O   O19       1.0  0.32721  0.52180  0.04512  1.0000
  O   O20       1.0  0.32722  0.52160  0.54513  1.0000
  O   O21       1.0  0.82731  0.02157  0.04513  1.0000
  O   O22       1.0  0.82726  0.02170  0.54517  1.0000
  O   O23       1.0  0.82726  0.52158  0.04516  1.0000
  O   O24       1.0  0.82722  0.52167  0.54507  1.0000
  O   O25       1.0  0.07720  0.47927  0.45552  1.0000
  O   O26       1.0  0.07728  0.47929  0.95558  1.0000
  O   O27       1.0  0.07716  0.97923  0.45555  1.0000
  O   O28       1.0  0.07732  0.97940  0.95559  1.0000
  O   O29       1.0  0.57724  0.47933  0.45558  1.0000
  O   O30       1.0  0.57728  0.47943  0.95558  1.0000
  O   O31       1.0  0.57726  0.97940  0.45564  1.0000
  O   O32       1.0  0.57730  0.97930  0.95559  1.0000
  O   O33       1.0  0.04166  0.44509  0.16936  1.0000
  O   O34       1.0  0.04148  0.44510  0.66931  1.0000
  O   O35       1.0  0.04168  0.94509  0.16927  1.0000
  O   O36       1.0  0.04176  0.94507  0.66933  1.0000
  O   O37       1.0  0.54136  0.44512  0.16929  1.0000
  O   O38       1.0  0.54165  0.44525  0.66929  1.0000
  O   O39       1.0  0.54138  0.94511  0.16927  1.0000
  O   O40       1.0  0.54133  0.94521  0.66932  1.0000
  O   O41       1.0  0.04143  0.19518  0.08137  1.0000
  O   O42       1.0  0.04168  0.19511  0.58135  1.0000
  O   O43       1.0  0.04143  0.69507  0.08151  1.0000
  O   O44       1.0  0.04161  0.69505  0.58151  1.0000
  O   O45       1.0  0.54158  0.19511  0.08138  1.0000
  O   O46       1.0  0.54135  0.19529  0.58131  1.0000
  O   O47       1.0  0.54155  0.69516  0.08143  1.0000
  O   O48       1.0  0.54154  0.69517  0.58141  1.0000
  O   O49       1.0  0.29147  0.30587  0.41936  1.0000
  O   O50       1.0  0.29174  0.30597  0.91943  1.0000
  O   O51       1.0  0.29162  0.80596  0.41933  1.0000
  O   O52       1.0  0.29152  0.80591  0.91944  1.0000
  O   O53       1.0  0.79152  0.30587  0.41932  1.0000
  O   O54       1.0  0.79148  0.30589  0.91934  1.0000
  O   O55       1.0  0.79146  0.80591  0.41943  1.0000
  O   O56       1.0  0.79160  0.80586  0.91942  1.0000
  O   O57       1.0  0.29162  0.05589  0.33137  1.0000
  O   O58       1.0  0.29175  0.05599  0.83140  1.0000
  O   O59       1.0  0.29158  0.55590  0.33131  1.0000
  O   O60       1.0  0.29152  0.55587  0.83125  1.0000
  O   O61       1.0  0.79144  0.05582  0.33127  1.0000
  O   O62       1.0  0.79152  0.05581  0.83126  1.0000
  O   O63       1.0  0.79149  0.55589  0.33128  1.0000
  O   O64       1.0  0.79154  0.55587  0.83123  1.0000
