data_image0
_chemical_formula_structural       Sr24Si24O72
_chemical_formula_sum              "Sr24 Si24 O72"
_cell_length_a       14.2972
_cell_length_b       12.3425
_cell_length_c       10.9187
_cell_angle_alpha    68.4584
_cell_angle_beta     89.9991
_cell_angle_gamma    90.001

_space_group_name_H-M_alt    "P 1"
_space_group_IT_number       1

loop_
  _space_group_symop_operation_xyz
  'x, y, z'

loop_
  _atom_site_type_symbol
  _atom_site_label
  _atom_site_symmetry_multiplicity
  _atom_site_fract_x
  _atom_site_fract_y
  _atom_site_fract_z
  _atom_site_occupancy
  Sr  Sr1       1.0  0.87051  0.41353  0.99956  1.0000
  Sr  Sr2       1.0  0.37048  0.41345  0.99971  1.0000
  Sr  Sr3       1.0  0.12055  0.91343  0.99967  1.0000
  Sr  Sr4       1.0  0.62057  0.91333  0.99963  1.0000
  Sr  Sr5       1.0  0.87049  0.58727  0.50130  1.0000
  Sr  Sr6       1.0  0.37058  0.58722  0.50128  1.0000
  Sr  Sr7       1.0  0.12052  0.08718  0.50141  1.0000
  Sr  Sr8       1.0  0.62054  0.08708  0.50130  1.0000
  Sr  Sr9       1.0  0.13018  0.58718  0.00125  1.0000
  Sr  Sr10      1.0  0.63019  0.58727  0.00142  1.0000
  Sr  Sr11      1.0  0.38021  0.08722  0.00140  1.0000
  Sr  Sr12      1.0  0.88017  0.08729  0.00123  1.0000
  Sr  Sr13      1.0  0.13023  0.41330  0.49962  1.0000
  Sr  Sr14      1.0  0.63012  0.41337  0.49970  1.0000
  Sr  Sr15      1.0  0.38021  0.91331  0.49970  1.0000
  Sr  Sr16      1.0  0.88013  0.91349  0.49962  1.0000
  Sr  Sr17      1.0  0.87527  0.25037  0.50043  1.0000
  Sr  Sr18      1.0  0.37536  0.25025  0.50050  1.0000
  Sr  Sr19      1.0  0.12539  0.75032  0.50044  1.0000
  Sr  Sr20      1.0  0.62538  0.75030  0.50048  1.0000
  Sr  Sr21      1.0  0.12528  0.25028  0.00044  1.0000
  Sr  Sr22      1.0  0.62539  0.25025  0.00052  1.0000
  Sr  Sr23      1.0  0.37536  0.75032  0.00062  1.0000
  Sr  Sr24      1.0  0.87541  0.75031  0.00038  1.0000
  Si  Si1       1.0  0.97903  0.37613  0.74654  1.0000
  Si  Si2       1.0  0.47910  0.37600  0.74685  1.0000
  Si  Si3       1.0  0.22913  0.87592  0.74682  1.0000
  Si  Si4       1.0  0.72906  0.87610  0.74663  1.0000
  Si  Si5       1.0  0.97912  0.62460  0.75413  1.0000
  Si  Si6       1.0  0.47899  0.62454  0.75433  1.0000
  Si  Si7       1.0  0.22911  0.12444  0.75439  1.0000
  Si  Si8       1.0  0.72908  0.12458  0.75420  1.0000
  Si  Si9       1.0  0.02167  0.62457  0.25425  1.0000
  Si  Si10      1.0  0.52169  0.62445  0.25438  1.0000
  Si  Si11      1.0  0.27157  0.12457  0.25437  1.0000
  Si  Si12      1.0  0.77165  0.12451  0.25428  1.0000
  Si  Si13      1.0  0.02157  0.37607  0.24663  1.0000
  Si  Si14      1.0  0.52160  0.37599  0.24670  1.0000
  Si  Si15      1.0  0.27165  0.87614  0.24668  1.0000
  Si  Si16      1.0  0.77175  0.87604  0.24662  1.0000
  Si  Si17      1.0  0.16647  0.50029  0.75037  1.0000
  Si  Si18      1.0  0.66642  0.50041  0.75053  1.0000
  Si  Si19      1.0  0.41653  0.00027  0.75053  1.0000
  Si  Si20      1.0  0.91648  0.00035  0.75049  1.0000
  Si  Si21      1.0  0.83418  0.50045  0.25042  1.0000
  Si  Si22      1.0  0.33424  0.50033  0.25046  1.0000
  Si  Si23      1.0  0.08419  0.00033  0.25047  1.0000
  Si  Si24      1.0  0.58428  0.00014  0.25049  1.0000
  O   O1        1.0  0.95401  0.37305  0.60504  1.0000
  O   O2        1.0  0.45406  0.37283  0.60539  1.0000
  O   O3        1.0  0.20414  0.87284  0.60529  1.0000
  O   O4        1.0  0.70404  0.87304  0.60513  1.0000
  O   O5        1.0  0.95414  0.62770  0.89561  1.0000
  O   O6        1.0  0.45391  0.62762  0.89580  1.0000
  O   O7        1.0  0.20410  0.12747  0.89590  1.0000
  O   O8        1.0  0.70407  0.12759  0.89572  1.0000
  O   O9        1.0  0.04668  0.62745  0.39585  1.0000
  O   O10       1.0  0.54667  0.62738  0.39594  1.0000
  O   O11       1.0  0.29652  0.12741  0.39600  1.0000
  O   O12       1.0  0.79668  0.12753  0.39581  1.0000
  O   O13       1.0  0.04648  0.37304  0.10508  1.0000
  O   O14       1.0  0.54667  0.37305  0.10518  1.0000
  O   O15       1.0  0.29660  0.87311  0.10516  1.0000
  O   O16       1.0  0.79680  0.87301  0.10512  1.0000
  O   O17       1.0  0.95302  0.27765  0.88509  1.0000
  O   O18       1.0  0.45314  0.27750  0.88544  1.0000
  O   O19       1.0  0.20313  0.77743  0.88538  1.0000
  O   O20       1.0  0.70299  0.77757  0.88513  1.0000
  O   O21       1.0  0.95308  0.72317  0.61564  1.0000
  O   O22       1.0  0.45301  0.72299  0.61573  1.0000
  O   O23       1.0  0.20301  0.22300  0.61590  1.0000
  O   O24       1.0  0.70310  0.22314  0.61567  1.0000
  O   O25       1.0  0.04772  0.72312  0.11577  1.0000
  O   O26       1.0  0.54782  0.72300  0.11591  1.0000
  O   O27       1.0  0.29762  0.22323  0.11598  1.0000
  O   O28       1.0  0.79762  0.22312  0.11580  1.0000
  O   O29       1.0  0.04766  0.27754  0.38516  1.0000
  O   O30       1.0  0.54751  0.27738  0.38522  1.0000
  O   O31       1.0  0.29774  0.77762  0.38519  1.0000
  O   O32       1.0  0.79772  0.77758  0.38523  1.0000
  O   O33       1.0  0.09495  0.39379  0.74849  1.0000
  O   O34       1.0  0.59501  0.39378  0.74873  1.0000
  O   O35       1.0  0.34504  0.89371  0.74873  1.0000
  O   O36       1.0  0.84496  0.89383  0.74868  1.0000
  O   O37       1.0  0.09502  0.60688  0.75209  1.0000
  O   O38       1.0  0.59493  0.60689  0.75246  1.0000
  O   O39       1.0  0.34503  0.10685  0.75228  1.0000
  O   O40       1.0  0.84500  0.10688  0.75232  1.0000
  O   O41       1.0  0.90571  0.60697  0.25223  1.0000
  O   O42       1.0  0.40576  0.60689  0.25223  1.0000
  O   O43       1.0  0.15566  0.10692  0.25223  1.0000
  O   O44       1.0  0.65574  0.10668  0.25240  1.0000
  O   O45       1.0  0.90565  0.39383  0.24874  1.0000
  O   O46       1.0  0.40568  0.39377  0.24860  1.0000
  O   O47       1.0  0.15574  0.89380  0.24874  1.0000
  O   O48       1.0  0.65581  0.89367  0.24856  1.0000
  O   O49       1.0  0.21792  0.45305  0.88984  1.0000
  O   O50       1.0  0.71804  0.45311  0.88987  1.0000
  O   O51       1.0  0.46802  0.95308  0.88998  1.0000
  O   O52       1.0  0.96803  0.95304  0.88987  1.0000
  O   O53       1.0  0.21806  0.54752  0.61102  1.0000
  O   O54       1.0  0.71793  0.54776  0.61109  1.0000
  O   O55       1.0  0.46809  0.04748  0.61116  1.0000
  O   O56       1.0  0.96799  0.04762  0.61108  1.0000
  O   O57       1.0  0.78272  0.54770  0.11095  1.0000
  O   O58       1.0  0.28272  0.54770  0.11106  1.0000
  O   O59       1.0  0.03268  0.04755  0.11108  1.0000
  O   O60       1.0  0.53275  0.04747  0.11109  1.0000
  O   O61       1.0  0.78255  0.45327  0.38975  1.0000
  O   O62       1.0  0.28276  0.45302  0.38988  1.0000
  O   O63       1.0  0.03271  0.95305  0.38991  1.0000
  O   O64       1.0  0.53270  0.95280  0.38985  1.0000
  O   O65       1.0  0.93467  0.50040  0.75026  1.0000
  O   O66       1.0  0.43469  0.50025  0.75052  1.0000
  O   O67       1.0  0.18475  0.00019  0.75056  1.0000
  O   O68       1.0  0.68468  0.00038  0.75032  1.0000
  O   O69       1.0  0.06598  0.50033  0.25035  1.0000
  O   O70       1.0  0.56599  0.50021  0.25059  1.0000
  O   O71       1.0  0.31601  0.00038  0.25048  1.0000
  O   O72       1.0  0.81605  0.00031  0.25040  1.0000
