data_image0
_chemical_formula_structural       Ba48Ga24O84
_chemical_formula_sum              "Ba48 Ga24 O84"
_cell_length_a       10.774
_cell_length_b       14.6833
_cell_length_c       17.8735
_cell_angle_alpha    81.2555
_cell_angle_beta     89.9969
_cell_angle_gamma    90.0004

_space_group_name_H-M_alt    "P 1"
_space_group_IT_number       1

loop_
  _space_group_symop_operation_xyz
  'x, y, z'

loop_
  _atom_site_type_symbol
  _atom_site_label
  _atom_site_symmetry_multiplicity
  _atom_site_fract_x
  _atom_site_fract_y
  _atom_site_fract_z
  _atom_site_occupancy
  Ba  Ba1       1.0  0.78723  0.01966  0.74318  1.0000
  Ba  Ba2       1.0  0.78707  0.51958  0.74324  1.0000
  Ba  Ba3       1.0  0.28720  0.23094  0.25730  1.0000
  Ba  Ba4       1.0  0.28710  0.73099  0.25730  1.0000
  Ba  Ba5       1.0  0.21385  0.48095  0.25723  1.0000
  Ba  Ba6       1.0  0.21371  0.98096  0.25736  1.0000
  Ba  Ba7       1.0  0.71377  0.26966  0.74324  1.0000
  Ba  Ba8       1.0  0.71371  0.76962  0.74318  1.0000
  Ba  Ba9       1.0  0.26734  0.22802  0.90748  1.0000
  Ba  Ba10      1.0  0.26726  0.72798  0.90741  1.0000
  Ba  Ba11      1.0  0.76724  0.02256  0.09309  1.0000
  Ba  Ba12      1.0  0.76735  0.52261  0.09318  1.0000
  Ba  Ba13      1.0  0.73359  0.27260  0.09310  1.0000
  Ba  Ba14      1.0  0.73358  0.77254  0.09318  1.0000
  Ba  Ba15      1.0  0.23365  0.47809  0.90736  1.0000
  Ba  Ba16      1.0  0.23368  0.97801  0.90750  1.0000
  Ba  Ba17      1.0  0.28850  0.24929  0.59173  1.0000
  Ba  Ba18      1.0  0.28858  0.74932  0.59158  1.0000
  Ba  Ba19      1.0  0.78864  0.00115  0.40898  1.0000
  Ba  Ba20      1.0  0.78846  0.50126  0.40879  1.0000
  Ba  Ba21      1.0  0.71236  0.25122  0.40883  1.0000
  Ba  Ba22      1.0  0.71239  0.75127  0.40885  1.0000
  Ba  Ba23      1.0  0.21230  0.99930  0.59171  1.0000
  Ba  Ba24      1.0  0.21220  0.49929  0.59173  1.0000
  Ba  Ba25      1.0  0.89607  0.16945  0.91831  1.0000
  Ba  Ba26      1.0  0.89599  0.66944  0.91830  1.0000
  Ba  Ba27      1.0  0.39604  0.08126  0.08224  1.0000
  Ba  Ba28      1.0  0.39624  0.58124  0.08215  1.0000
  Ba  Ba29      1.0  0.10479  0.33124  0.08218  1.0000
  Ba  Ba30      1.0  0.10463  0.83111  0.08222  1.0000
  Ba  Ba31      1.0  0.60482  0.41961  0.91825  1.0000
  Ba  Ba32      1.0  0.60503  0.91941  0.91837  1.0000
  Ba  Ba33      1.0  0.44873  0.09944  0.75111  1.0000
  Ba  Ba34      1.0  0.44871  0.59957  0.75102  1.0000
  Ba  Ba35      1.0  0.94881  0.15109  0.24944  1.0000
  Ba  Ba36      1.0  0.94882  0.65108  0.24951  1.0000
  Ba  Ba37      1.0  0.55221  0.40111  0.24943  1.0000
  Ba  Ba38      1.0  0.55205  0.90125  0.24944  1.0000
  Ba  Ba39      1.0  0.05201  0.34941  0.75115  1.0000
  Ba  Ba40      1.0  0.05213  0.84947  0.75101  1.0000
  Ba  Ba41      1.0  0.92398  0.16879  0.58590  1.0000
  Ba  Ba42      1.0  0.92370  0.66869  0.58577  1.0000
  Ba  Ba43      1.0  0.42391  0.08199  0.41471  1.0000
  Ba  Ba44      1.0  0.42362  0.58187  0.41472  1.0000
  Ba  Ba45      1.0  0.07705  0.33193  0.41466  1.0000
  Ba  Ba46      1.0  0.07714  0.83191  0.41476  1.0000
  Ba  Ba47      1.0  0.57685  0.41867  0.58579  1.0000
  Ba  Ba48      1.0  0.57689  0.91885  0.58599  1.0000
  Ga  Ga1       1.0  0.56995  0.14816  0.56608  1.0000
  Ga  Ga2       1.0  0.56979  0.64805  0.56591  1.0000
  Ga  Ga3       1.0  0.06996  0.10256  0.43459  1.0000
  Ga  Ga4       1.0  0.06976  0.60249  0.43450  1.0000
  Ga  Ga5       1.0  0.43098  0.35262  0.43456  1.0000
  Ga  Ga6       1.0  0.43113  0.85261  0.43450  1.0000
  Ga  Ga7       1.0  0.93088  0.39806  0.56598  1.0000
  Ga  Ga8       1.0  0.93105  0.89801  0.56605  1.0000
  Ga  Ga9       1.0  0.92863  0.40664  0.90929  1.0000
  Ga  Ga10      1.0  0.92861  0.90666  0.90926  1.0000
  Ga  Ga11      1.0  0.42870  0.34395  0.09132  1.0000
  Ga  Ga12      1.0  0.42855  0.84387  0.09129  1.0000
  Ga  Ga13      1.0  0.07235  0.09391  0.09136  1.0000
  Ga  Ga14      1.0  0.07241  0.59385  0.09133  1.0000
  Ga  Ga15      1.0  0.57230  0.15666  0.90932  1.0000
  Ga  Ga16      1.0  0.57234  0.65675  0.90923  1.0000
  Ga  Ga17      1.0  0.05937  0.09836  0.76729  1.0000
  Ga  Ga18      1.0  0.05905  0.59847  0.76720  1.0000
  Ga  Ga19      1.0  0.55929  0.15210  0.23342  1.0000
  Ga  Ga20      1.0  0.55931  0.65211  0.23343  1.0000
  Ga  Ga21      1.0  0.94182  0.40206  0.23334  1.0000
  Ga  Ga22      1.0  0.94174  0.90212  0.23343  1.0000
  Ga  Ga23      1.0  0.44171  0.34847  0.76725  1.0000
  Ga  Ga24      1.0  0.44163  0.84840  0.76725  1.0000
  O   O1        1.0  0.50051  0.25041  0.50032  1.0000
  O   O2        1.0  0.50043  0.75043  0.50037  1.0000
  O   O3        1.0  0.00051  0.00020  0.50027  1.0000
  O   O4        1.0  0.00059  0.50019  0.50028  1.0000
  O   O5        1.0  0.43672  0.07757  0.92671  1.0000
  O   O6        1.0  0.43682  0.57755  0.92644  1.0000
  O   O7        1.0  0.93674  0.17304  0.07405  1.0000
  O   O8        1.0  0.93678  0.67302  0.07413  1.0000
  O   O9        1.0  0.56409  0.42331  0.07414  1.0000
  O   O10       1.0  0.56408  0.92305  0.07391  1.0000
  O   O11       1.0  0.06423  0.32754  0.92655  1.0000
  O   O12       1.0  0.06404  0.82740  0.92666  1.0000
  O   O13       1.0  0.14522  0.16266  0.50760  1.0000
  O   O14       1.0  0.14509  0.66272  0.50746  1.0000
  O   O15       1.0  0.64527  0.08790  0.49310  1.0000
  O   O16       1.0  0.64511  0.58793  0.49288  1.0000
  O   O17       1.0  0.85540  0.33791  0.49306  1.0000
  O   O18       1.0  0.85578  0.83774  0.49307  1.0000
  O   O19       1.0  0.35558  0.41273  0.50758  1.0000
  O   O20       1.0  0.35565  0.91289  0.50736  1.0000
  O   O21       1.0  0.93668  0.18830  0.75272  1.0000
  O   O22       1.0  0.93635  0.68839  0.75287  1.0000
  O   O23       1.0  0.43638  0.06234  0.24793  1.0000
  O   O24       1.0  0.43649  0.56225  0.24772  1.0000
  O   O25       1.0  0.06447  0.31215  0.24778  1.0000
  O   O26       1.0  0.06432  0.81213  0.24794  1.0000
  O   O27       1.0  0.56427  0.43849  0.75292  1.0000
  O   O28       1.0  0.56427  0.93834  0.75258  1.0000
  O   O29       1.0  0.42802  0.08321  0.60273  1.0000
  O   O30       1.0  0.42791  0.58304  0.60251  1.0000
  O   O31       1.0  0.92814  0.16749  0.39783  1.0000
  O   O32       1.0  0.92786  0.66731  0.39786  1.0000
  O   O33       1.0  0.57279  0.41755  0.39777  1.0000
  O   O34       1.0  0.57303  0.91743  0.39780  1.0000
  O   O35       1.0  0.07267  0.33300  0.60268  1.0000
  O   O36       1.0  0.07288  0.83311  0.60274  1.0000
  O   O37       1.0  0.21405  0.13675  0.79055  1.0000
  O   O38       1.0  0.21371  0.63712  0.79026  1.0000
  O   O39       1.0  0.71378  0.11328  0.21029  1.0000
  O   O40       1.0  0.71404  0.61369  0.21027  1.0000
  O   O41       1.0  0.78705  0.36366  0.21021  1.0000
  O   O42       1.0  0.78704  0.86374  0.21020  1.0000
  O   O43       1.0  0.28694  0.38687  0.79036  1.0000
  O   O44       1.0  0.28695  0.88695  0.79040  1.0000
  O   O45       1.0  0.68455  0.15780  0.63998  1.0000
  O   O46       1.0  0.68436  0.65772  0.63980  1.0000
  O   O47       1.0  0.18473  0.09272  0.36081  1.0000
  O   O48       1.0  0.18445  0.59267  0.36069  1.0000
  O   O49       1.0  0.31624  0.34272  0.36078  1.0000
  O   O50       1.0  0.31640  0.84268  0.36071  1.0000
  O   O51       1.0  0.81635  0.40772  0.63993  1.0000
  O   O52       1.0  0.81634  0.90778  0.63985  1.0000
  O   O53       1.0  0.99402  0.01913  0.85577  1.0000
  O   O54       1.0  0.99399  0.51913  0.85571  1.0000
  O   O55       1.0  0.49422  0.23153  0.14490  1.0000
  O   O56       1.0  0.49402  0.73147  0.14490  1.0000
  O   O57       1.0  0.00694  0.48138  0.14482  1.0000
  O   O58       1.0  0.00690  0.98141  0.14483  1.0000
  O   O59       1.0  0.50696  0.26913  0.85570  1.0000
  O   O60       1.0  0.50695  0.76916  0.85574  1.0000
  O   O61       1.0  0.67162  0.10629  0.84106  1.0000
  O   O62       1.0  0.67185  0.60637  0.84109  1.0000
  O   O63       1.0  0.17181  0.14426  0.15951  1.0000
  O   O64       1.0  0.17176  0.64422  0.15948  1.0000
  O   O65       1.0  0.32898  0.39419  0.15940  1.0000
  O   O66       1.0  0.32911  0.89419  0.15951  1.0000
  O   O67       1.0  0.82915  0.35625  0.84114  1.0000
  O   O68       1.0  0.82918  0.85633  0.84102  1.0000
  O   O69       1.0  0.33378  0.33008  0.00880  1.0000
  O   O70       1.0  0.33320  0.82980  0.00898  1.0000
  O   O71       1.0  0.83366  0.42057  0.99177  1.0000
  O   O72       1.0  0.83327  0.92076  0.99158  1.0000
  O   O73       1.0  0.66750  0.17062  0.99170  1.0000
  O   O74       1.0  0.66747  0.67073  0.99164  1.0000
  O   O75       1.0  0.16749  0.07997  0.00893  1.0000
  O   O76       1.0  0.16751  0.57988  0.00887  1.0000
  O   O77       1.0  0.04080  0.03372  0.68730  1.0000
  O   O78       1.0  0.04052  0.53381  0.68724  1.0000
  O   O79       1.0  0.54094  0.21686  0.31331  1.0000
  O   O80       1.0  0.54053  0.71691  0.31328  1.0000
  O   O81       1.0  0.96028  0.46679  0.31327  1.0000
  O   O82       1.0  0.96029  0.96690  0.31333  1.0000
  O   O83       1.0  0.46012  0.28387  0.68725  1.0000
  O   O84       1.0  0.45997  0.78372  0.68727  1.0000
