data_image0
_chemical_formula_structural       Sr32Hf32O96
_chemical_formula_sum              "Sr32 Hf32 O96"
_cell_length_a       11.5165
_cell_length_b       11.5554
_cell_length_c       16.2872
_cell_angle_alpha    89.999
_cell_angle_beta     90.0011
_cell_angle_gamma    89.9982

_space_group_name_H-M_alt    "P 1"
_space_group_IT_number       1

loop_
  _space_group_symop_operation_xyz
  'x, y, z'

loop_
  _atom_site_type_symbol
  _atom_site_label
  _atom_site_symmetry_multiplicity
  _atom_site_fract_x
  _atom_site_fract_y
  _atom_site_fract_z
  _atom_site_occupancy
  Sr  Sr1       1.0  0.00300  0.26238  0.12527  1.0000
  Sr  Sr2       1.0  0.00296  0.26244  0.62530  1.0000
  Sr  Sr3       1.0  0.00301  0.76243  0.12527  1.0000
  Sr  Sr4       1.0  0.00286  0.76244  0.62534  1.0000
  Sr  Sr5       1.0  0.50299  0.26238  0.12529  1.0000
  Sr  Sr6       1.0  0.50303  0.26255  0.62531  1.0000
  Sr  Sr7       1.0  0.50301  0.76243  0.12533  1.0000
  Sr  Sr8       1.0  0.50307  0.76237  0.62530  1.0000
  Sr  Sr9       1.0  0.25285  0.48846  0.37530  1.0000
  Sr  Sr10      1.0  0.25300  0.48849  0.87538  1.0000
  Sr  Sr11      1.0  0.25302  0.98845  0.37532  1.0000
  Sr  Sr12      1.0  0.25299  0.98842  0.87531  1.0000
  Sr  Sr13      1.0  0.75300  0.48852  0.37531  1.0000
  Sr  Sr14      1.0  0.75298  0.48839  0.87530  1.0000
  Sr  Sr15      1.0  0.75298  0.98852  0.37535  1.0000
  Sr  Sr16      1.0  0.75296  0.98851  0.87523  1.0000
  Sr  Sr17      1.0  0.24787  0.01244  0.12528  1.0000
  Sr  Sr18      1.0  0.24804  0.01251  0.62529  1.0000
  Sr  Sr19      1.0  0.24794  0.51235  0.12529  1.0000
  Sr  Sr20      1.0  0.24806  0.51246  0.62530  1.0000
  Sr  Sr21      1.0  0.74790  0.01239  0.12530  1.0000
  Sr  Sr22      1.0  0.74786  0.01246  0.62524  1.0000
  Sr  Sr23      1.0  0.74784  0.51242  0.12530  1.0000
  Sr  Sr24      1.0  0.74797  0.51251  0.62526  1.0000
  Sr  Sr25      1.0  0.49800  0.23845  0.37526  1.0000
  Sr  Sr26      1.0  0.49785  0.23848  0.87534  1.0000
  Sr  Sr27      1.0  0.49795  0.73840  0.37528  1.0000
  Sr  Sr28      1.0  0.49793  0.73848  0.87533  1.0000
  Sr  Sr29      1.0  0.99787  0.23847  0.37532  1.0000
  Sr  Sr30      1.0  0.99793  0.23849  0.87529  1.0000
  Sr  Sr31      1.0  0.99789  0.73847  0.37535  1.0000
  Sr  Sr32      1.0  0.99803  0.73843  0.87527  1.0000
  Hf  Hf1       1.0  0.00046  0.00041  0.00028  1.0000
  Hf  Hf2       1.0  0.00054  0.00043  0.50029  1.0000
  Hf  Hf3       1.0  0.00043  0.50046  0.00031  1.0000
  Hf  Hf4       1.0  0.00045  0.50050  0.50032  1.0000
  Hf  Hf5       1.0  0.50045  0.00049  0.00031  1.0000
  Hf  Hf6       1.0  0.50044  0.00041  0.50029  1.0000
  Hf  Hf7       1.0  0.50050  0.50043  0.00034  1.0000
  Hf  Hf8       1.0  0.50047  0.50039  0.50030  1.0000
  Hf  Hf9       1.0  0.25043  0.25048  0.00026  1.0000
  Hf  Hf10      1.0  0.25048  0.25046  0.50027  1.0000
  Hf  Hf11      1.0  0.25046  0.75046  0.00033  1.0000
  Hf  Hf12      1.0  0.25050  0.75041  0.50032  1.0000
  Hf  Hf13      1.0  0.75051  0.25043  0.00029  1.0000
  Hf  Hf14      1.0  0.75052  0.25051  0.50030  1.0000
  Hf  Hf15      1.0  0.75046  0.75050  0.00032  1.0000
  Hf  Hf16      1.0  0.75046  0.75046  0.50033  1.0000
  Hf  Hf17      1.0  0.25046  0.25042  0.25029  1.0000
  Hf  Hf18      1.0  0.25054  0.25049  0.75028  1.0000
  Hf  Hf19      1.0  0.25039  0.75041  0.25030  1.0000
  Hf  Hf20      1.0  0.25048  0.75039  0.75030  1.0000
  Hf  Hf21      1.0  0.75045  0.25043  0.25028  1.0000
  Hf  Hf22      1.0  0.75043  0.25042  0.75033  1.0000
  Hf  Hf23      1.0  0.75045  0.75050  0.25029  1.0000
  Hf  Hf24      1.0  0.75054  0.75049  0.75036  1.0000
  Hf  Hf25      1.0  0.00047  0.00045  0.25030  1.0000
  Hf  Hf26      1.0  0.00053  0.00052  0.75027  1.0000
  Hf  Hf27      1.0  0.00046  0.50042  0.25026  1.0000
  Hf  Hf28      1.0  0.00048  0.50047  0.75028  1.0000
  Hf  Hf29      1.0  0.50047  0.00043  0.25034  1.0000
  Hf  Hf30      1.0  0.50052  0.00043  0.75034  1.0000
  Hf  Hf31      1.0  0.50047  0.50043  0.25033  1.0000
  Hf  Hf32      1.0  0.50056  0.50052  0.75033  1.0000
  O   O1        1.0  0.11034  0.14057  0.23308  1.0000
  O   O2        1.0  0.11036  0.14064  0.73298  1.0000
  O   O3        1.0  0.11029  0.64057  0.23304  1.0000
  O   O4        1.0  0.11038  0.64054  0.73307  1.0000
  O   O5        1.0  0.61031  0.14060  0.23319  1.0000
  O   O6        1.0  0.61027  0.14064  0.73314  1.0000
  O   O7        1.0  0.61025  0.64063  0.23319  1.0000
  O   O8        1.0  0.61037  0.64063  0.73314  1.0000
  O   O9        1.0  0.36028  0.11029  0.26759  1.0000
  O   O10       1.0  0.36032  0.11030  0.76747  1.0000
  O   O11       1.0  0.36026  0.61029  0.26754  1.0000
  O   O12       1.0  0.36039  0.61036  0.76760  1.0000
  O   O13       1.0  0.86036  0.11037  0.26750  1.0000
  O   O14       1.0  0.86020  0.11024  0.76758  1.0000
  O   O15       1.0  0.86025  0.61027  0.26744  1.0000
  O   O16       1.0  0.86035  0.61036  0.76750  1.0000
  O   O17       1.0  0.14057  0.39056  0.01751  1.0000
  O   O18       1.0  0.14072  0.39070  0.51742  1.0000
  O   O19       1.0  0.14057  0.89054  0.01751  1.0000
  O   O20       1.0  0.14068  0.89058  0.51751  1.0000
  O   O21       1.0  0.64059  0.39051  0.01758  1.0000
  O   O22       1.0  0.64072  0.39069  0.51754  1.0000
  O   O23       1.0  0.64051  0.89059  0.01750  1.0000
  O   O24       1.0  0.64067  0.89065  0.51755  1.0000
  O   O25       1.0  0.39074  0.36018  0.48315  1.0000
  O   O26       1.0  0.39060  0.36036  0.98310  1.0000
  O   O27       1.0  0.39069  0.86019  0.48310  1.0000
  O   O28       1.0  0.39051  0.86040  0.98317  1.0000
  O   O29       1.0  0.89067  0.36030  0.48318  1.0000
  O   O30       1.0  0.89069  0.36022  0.98307  1.0000
  O   O31       1.0  0.89063  0.86032  0.48312  1.0000
  O   O32       1.0  0.89061  0.86030  0.98305  1.0000
  O   O33       1.0  0.39060  0.36031  0.26750  1.0000
  O   O34       1.0  0.39068  0.36037  0.76751  1.0000
  O   O35       1.0  0.39048  0.86036  0.26754  1.0000
  O   O36       1.0  0.39062  0.86026  0.76754  1.0000
  O   O37       1.0  0.89064  0.36027  0.26750  1.0000
  O   O38       1.0  0.89053  0.36036  0.76751  1.0000
  O   O39       1.0  0.89050  0.86041  0.26746  1.0000
  O   O40       1.0  0.89072  0.86032  0.76741  1.0000
  O   O41       1.0  0.14065  0.39059  0.23313  1.0000
  O   O42       1.0  0.14060  0.39056  0.73312  1.0000
  O   O43       1.0  0.14056  0.89054  0.23309  1.0000
  O   O44       1.0  0.14065  0.89055  0.73305  1.0000
  O   O45       1.0  0.64067  0.39065  0.23304  1.0000
  O   O46       1.0  0.64065  0.39061  0.73308  1.0000
  O   O47       1.0  0.64056  0.89061  0.23302  1.0000
  O   O48       1.0  0.64072  0.89065  0.73307  1.0000
  O   O49       1.0  0.36029  0.11026  0.48313  1.0000
  O   O50       1.0  0.36039  0.11046  0.98300  1.0000
  O   O51       1.0  0.36020  0.61015  0.48309  1.0000
  O   O52       1.0  0.36035  0.61033  0.98303  1.0000
  O   O53       1.0  0.86034  0.11033  0.48302  1.0000
  O   O54       1.0  0.86036  0.11033  0.98302  1.0000
  O   O55       1.0  0.86030  0.61034  0.48308  1.0000
  O   O56       1.0  0.86029  0.61036  0.98313  1.0000
  O   O57       1.0  0.11035  0.14054  0.01752  1.0000
  O   O58       1.0  0.11030  0.14063  0.51756  1.0000
  O   O59       1.0  0.11033  0.64058  0.01761  1.0000
  O   O60       1.0  0.11023  0.64067  0.51759  1.0000
  O   O61       1.0  0.61037  0.14059  0.01749  1.0000
  O   O62       1.0  0.61032  0.14062  0.51742  1.0000
  O   O63       1.0  0.61029  0.64061  0.01752  1.0000
  O   O64       1.0  0.61022  0.64065  0.51739  1.0000
  O   O65       1.0  0.46764  0.49396  0.12533  1.0000
  O   O66       1.0  0.46764  0.49399  0.62532  1.0000
  O   O67       1.0  0.46753  0.99412  0.12532  1.0000
  O   O68       1.0  0.46773  0.99379  0.62530  1.0000
  O   O69       1.0  0.96765  0.49374  0.12531  1.0000
  O   O70       1.0  0.96755  0.49400  0.62531  1.0000
  O   O71       1.0  0.96760  0.99393  0.12528  1.0000
  O   O72       1.0  0.96770  0.99397  0.62528  1.0000
  O   O73       1.0  0.21768  0.25701  0.37531  1.0000
  O   O74       1.0  0.21772  0.25698  0.87527  1.0000
  O   O75       1.0  0.21761  0.75696  0.37532  1.0000
  O   O76       1.0  0.21758  0.75692  0.87530  1.0000
  O   O77       1.0  0.71768  0.25725  0.37531  1.0000
  O   O78       1.0  0.71759  0.25716  0.87530  1.0000
  O   O79       1.0  0.71779  0.75718  0.37531  1.0000
  O   O80       1.0  0.71767  0.75713  0.87531  1.0000
  O   O81       1.0  0.28340  0.24396  0.12529  1.0000
  O   O82       1.0  0.28331  0.24391  0.62529  1.0000
  O   O83       1.0  0.28332  0.74390  0.12534  1.0000
  O   O84       1.0  0.28339  0.74385  0.62532  1.0000
  O   O85       1.0  0.78320  0.24370  0.12531  1.0000
  O   O86       1.0  0.78329  0.24394  0.62532  1.0000
  O   O87       1.0  0.78318  0.74401  0.12531  1.0000
  O   O88       1.0  0.78312  0.74380  0.62532  1.0000
  O   O89       1.0  0.03333  0.00693  0.37530  1.0000
  O   O90       1.0  0.03330  0.00702  0.87526  1.0000
  O   O91       1.0  0.03325  0.50716  0.37530  1.0000
  O   O92       1.0  0.03319  0.50708  0.87529  1.0000
  O   O93       1.0  0.53330  0.00701  0.37532  1.0000
  O   O94       1.0  0.53323  0.00691  0.87531  1.0000
  O   O95       1.0  0.53334  0.50691  0.37531  1.0000
  O   O96       1.0  0.53336  0.50694  0.87531  1.0000
