data_image0
_chemical_formula_structural       Ba36Sn18O72
_chemical_formula_sum              "Ba36 Sn18 O72"
_cell_length_a       12.5062
_cell_length_b       12.5062
_cell_length_c       14.6478
_cell_angle_alpha    106.538
_cell_angle_beta     106.535
_cell_angle_gamma    90

_space_group_name_H-M_alt    "P 1"
_space_group_IT_number       1

loop_
  _space_group_symop_operation_xyz
  'x, y, z'

loop_
  _atom_site_type_symbol
  _atom_site_label
  _atom_site_symmetry_multiplicity
  _atom_site_fract_x
  _atom_site_fract_y
  _atom_site_fract_z
  _atom_site_occupancy
  Ba  Ba1       1.0  0.21578  0.21580  0.14647  1.0000
  Ba  Ba2       1.0  0.21595  0.21603  0.64655  1.0000
  Ba  Ba3       1.0  0.21581  0.54924  0.14646  1.0000
  Ba  Ba4       1.0  0.21590  0.54937  0.64651  1.0000
  Ba  Ba5       1.0  0.21576  0.88258  0.14657  1.0000
  Ba  Ba6       1.0  0.21587  0.88262  0.64652  1.0000
  Ba  Ba7       1.0  0.54934  0.21580  0.14647  1.0000
  Ba  Ba8       1.0  0.54918  0.21591  0.64651  1.0000
  Ba  Ba9       1.0  0.54926  0.54918  0.14643  1.0000
  Ba  Ba10      1.0  0.54935  0.54924  0.64651  1.0000
  Ba  Ba11      1.0  0.54923  0.88267  0.14657  1.0000
  Ba  Ba12      1.0  0.54918  0.88264  0.64651  1.0000
  Ba  Ba13      1.0  0.88262  0.21581  0.14663  1.0000
  Ba  Ba14      1.0  0.88238  0.21590  0.64651  1.0000
  Ba  Ba15      1.0  0.88272  0.54908  0.14662  1.0000
  Ba  Ba16      1.0  0.88264  0.54924  0.64646  1.0000
  Ba  Ba17      1.0  0.88252  0.88241  0.14659  1.0000
  Ba  Ba18      1.0  0.88238  0.88253  0.64653  1.0000
  Ba  Ba19      1.0  0.11836  0.11838  0.35422  1.0000
  Ba  Ba20      1.0  0.11839  0.11835  0.85419  1.0000
  Ba  Ba21      1.0  0.11855  0.45170  0.35428  1.0000
  Ba  Ba22      1.0  0.11866  0.45184  0.85420  1.0000
  Ba  Ba23      1.0  0.11851  0.78506  0.35427  1.0000
  Ba  Ba24      1.0  0.11849  0.78516  0.85425  1.0000
  Ba  Ba25      1.0  0.45171  0.11851  0.35412  1.0000
  Ba  Ba26      1.0  0.45184  0.11839  0.85420  1.0000
  Ba  Ba27      1.0  0.45167  0.45165  0.35403  1.0000
  Ba  Ba28      1.0  0.45203  0.45186  0.85429  1.0000
  Ba  Ba29      1.0  0.45177  0.78498  0.35411  1.0000
  Ba  Ba30      1.0  0.45178  0.78505  0.85427  1.0000
  Ba  Ba31      1.0  0.78516  0.11829  0.35432  1.0000
  Ba  Ba32      1.0  0.78514  0.11853  0.85424  1.0000
  Ba  Ba33      1.0  0.78497  0.45174  0.35413  1.0000
  Ba  Ba34      1.0  0.78520  0.45184  0.85424  1.0000
  Ba  Ba35      1.0  0.78523  0.78524  0.35422  1.0000
  Ba  Ba36      1.0  0.78513  0.78514  0.85420  1.0000
  Sn  Sn1       1.0  0.00052  0.00045  0.00036  1.0000
  Sn  Sn2       1.0  0.00048  0.00054  0.50050  1.0000
  Sn  Sn3       1.0  0.00054  0.33383  0.00042  1.0000
  Sn  Sn4       1.0  0.00048  0.33379  0.50035  1.0000
  Sn  Sn5       1.0  0.00054  0.66717  0.00037  1.0000
  Sn  Sn6       1.0  0.00047  0.66714  0.50039  1.0000
  Sn  Sn7       1.0  0.33383  0.00053  0.00043  1.0000
  Sn  Sn8       1.0  0.33375  0.00055  0.50032  1.0000
  Sn  Sn9       1.0  0.33385  0.33379  0.00034  1.0000
  Sn  Sn10      1.0  0.33387  0.33384  0.50033  1.0000
  Sn  Sn11      1.0  0.33389  0.66721  0.00048  1.0000
  Sn  Sn12      1.0  0.33390  0.66719  0.50040  1.0000
  Sn  Sn13      1.0  0.66731  0.00043  0.00040  1.0000
  Sn  Sn14      1.0  0.66709  0.00047  0.50033  1.0000
  Sn  Sn15      1.0  0.66728  0.33380  0.00037  1.0000
  Sn  Sn16      1.0  0.66719  0.33383  0.50032  1.0000
  Sn  Sn17      1.0  0.66728  0.66717  0.00043  1.0000
  Sn  Sn18      1.0  0.66717  0.66716  0.50027  1.0000
  O   O1        1.0  0.28238  0.28223  0.34555  1.0000
  O   O2        1.0  0.28214  0.28216  0.84562  1.0000
  O   O3        1.0  0.28238  0.61575  0.34557  1.0000
  O   O4        1.0  0.28226  0.61570  0.84570  1.0000
  O   O5        1.0  0.28211  0.94880  0.34555  1.0000
  O   O6        1.0  0.28222  0.94874  0.84563  1.0000
  O   O7        1.0  0.61563  0.28231  0.34551  1.0000
  O   O8        1.0  0.61579  0.28230  0.84561  1.0000
  O   O9        1.0  0.61542  0.61538  0.34550  1.0000
  O   O10       1.0  0.61553  0.61547  0.84563  1.0000
  O   O11       1.0  0.61552  0.94908  0.34557  1.0000
  O   O12       1.0  0.61573  0.94879  0.84563  1.0000
  O   O13       1.0  0.94911  0.28221  0.34557  1.0000
  O   O14       1.0  0.94868  0.28224  0.84564  1.0000
  O   O15       1.0  0.94905  0.61552  0.34566  1.0000
  O   O16       1.0  0.94906  0.61541  0.84560  1.0000
  O   O17       1.0  0.94874  0.94899  0.34569  1.0000
  O   O18       1.0  0.94911  0.94899  0.84562  1.0000
  O   O19       1.0  0.05214  0.05185  0.15510  1.0000
  O   O20       1.0  0.05220  0.05203  0.65521  1.0000
  O   O21       1.0  0.05216  0.38558  0.15521  1.0000
  O   O22       1.0  0.05216  0.38534  0.65513  1.0000
  O   O23       1.0  0.05200  0.71891  0.15514  1.0000
  O   O24       1.0  0.05206  0.71851  0.65513  1.0000
  O   O25       1.0  0.38548  0.05225  0.15518  1.0000
  O   O26       1.0  0.38548  0.05227  0.65512  1.0000
  O   O27       1.0  0.38549  0.38532  0.15507  1.0000
  O   O28       1.0  0.38557  0.38546  0.65514  1.0000
  O   O29       1.0  0.38556  0.71883  0.15518  1.0000
  O   O30       1.0  0.38537  0.71860  0.65511  1.0000
  O   O31       1.0  0.71893  0.05206  0.15515  1.0000
  O   O32       1.0  0.71856  0.05211  0.65510  1.0000
  O   O33       1.0  0.71889  0.38545  0.15509  1.0000
  O   O34       1.0  0.71864  0.38524  0.65505  1.0000
  O   O35       1.0  0.71883  0.71882  0.15519  1.0000
  O   O36       1.0  0.71896  0.71885  0.65502  1.0000
  O   O37       1.0  0.16718  0.00066  0.00046  1.0000
  O   O38       1.0  0.16708  0.00067  0.50038  1.0000
  O   O39       1.0  0.16717  0.33389  0.00035  1.0000
  O   O40       1.0  0.16718  0.33385  0.50039  1.0000
  O   O41       1.0  0.16722  0.66704  0.00045  1.0000
  O   O42       1.0  0.16721  0.66705  0.50039  1.0000
  O   O43       1.0  0.50059  0.00046  0.00047  1.0000
  O   O44       1.0  0.50045  0.00041  0.50035  1.0000
  O   O45       1.0  0.50054  0.33377  0.00021  1.0000
  O   O46       1.0  0.50053  0.33382  0.50026  1.0000
  O   O47       1.0  0.50057  0.66728  0.00044  1.0000
  O   O48       1.0  0.50057  0.66727  0.50043  1.0000
  O   O49       1.0  0.83399  0.00038  0.00041  1.0000
  O   O50       1.0  0.83380  0.00036  0.50043  1.0000
  O   O51       1.0  0.83395  0.33374  0.00054  1.0000
  O   O52       1.0  0.83385  0.33375  0.50031  1.0000
  O   O53       1.0  0.83389  0.66725  0.00032  1.0000
  O   O54       1.0  0.83383  0.66733  0.50027  1.0000
  O   O55       1.0  0.00047  0.16720  0.00051  1.0000
  O   O56       1.0  0.00025  0.16713  0.50033  1.0000
  O   O57       1.0  0.00053  0.50050  0.00044  1.0000
  O   O58       1.0  0.00037  0.50043  0.50040  1.0000
  O   O59       1.0  0.00055  0.83377  0.00016  1.0000
  O   O60       1.0  0.00065  0.83384  0.50043  1.0000
  O   O61       1.0  0.33390  0.16715  0.00036  1.0000
  O   O62       1.0  0.33376  0.16718  0.50030  1.0000
  O   O63       1.0  0.33394  0.50051  0.00032  1.0000
  O   O64       1.0  0.33392  0.50044  0.50025  1.0000
  O   O65       1.0  0.33379  0.83391  0.00057  1.0000
  O   O66       1.0  0.33368  0.83393  0.50052  1.0000
  O   O67       1.0  0.66724  0.16711  0.00032  1.0000
  O   O68       1.0  0.66703  0.16711  0.50021  1.0000
  O   O69       1.0  0.66744  0.50050  0.00030  1.0000
  O   O70       1.0  0.66734  0.50055  0.50037  1.0000
  O   O71       1.0  0.66731  0.83381  0.00037  1.0000
  O   O72       1.0  0.66707  0.83372  0.50007  1.0000
