data_image0
_chemical_formula_structural       Na16Ta32O88
_chemical_formula_sum              "Na16 Ta32 O88"
_cell_length_a       12.7592
_cell_length_b       12.4337
_cell_length_c       10.7694
_cell_angle_alpha    89.9994
_cell_angle_beta     98.0923
_cell_angle_gamma    104.113

_space_group_name_H-M_alt    "P 1"
_space_group_IT_number       1

loop_
  _space_group_symop_operation_xyz
  'x, y, z'

loop_
  _atom_site_type_symbol
  _atom_site_label
  _atom_site_symmetry_multiplicity
  _atom_site_fract_x
  _atom_site_fract_y
  _atom_site_fract_z
  _atom_site_occupancy
  Na  Na1       1.0  0.49650  0.87446  0.58346  1.0000
  Na  Na2       1.0  0.49649  0.37444  0.58346  1.0000
  Na  Na3       1.0  0.49650  0.62443  0.08332  1.0000
  Na  Na4       1.0  0.49656  0.12440  0.08324  1.0000
  Na  Na5       1.0  0.00460  0.00213  0.66884  1.0000
  Na  Na6       1.0  0.00458  0.50194  0.66888  1.0000
  Na  Na7       1.0  0.00438  0.75223  0.16864  1.0000
  Na  Na8       1.0  0.00417  0.25194  0.16842  1.0000
  Na  Na9       1.0  0.50399  0.37558  0.91748  1.0000
  Na  Na10      1.0  0.50388  0.87567  0.91755  1.0000
  Na  Na11      1.0  0.50389  0.12563  0.41746  1.0000
  Na  Na12      1.0  0.50395  0.62567  0.41749  1.0000
  Na  Na13      1.0  0.99703  0.24832  0.83407  1.0000
  Na  Na14      1.0  0.99692  0.74863  0.83404  1.0000
  Na  Na15      1.0  0.99680  0.99838  0.33432  1.0000
  Na  Na16      1.0  0.99701  0.49839  0.33405  1.0000
  Ta  Ta1       1.0  0.75048  0.09721  0.94380  1.0000
  Ta  Ta2       1.0  0.75049  0.59720  0.94381  1.0000
  Ta  Ta3       1.0  0.75052  0.84723  0.44387  1.0000
  Ta  Ta4       1.0  0.75048  0.34721  0.44380  1.0000
  Ta  Ta5       1.0  0.75056  0.11963  0.62534  1.0000
  Ta  Ta6       1.0  0.75052  0.61957  0.62534  1.0000
  Ta  Ta7       1.0  0.75051  0.86953  0.12533  1.0000
  Ta  Ta8       1.0  0.75051  0.36962  0.12533  1.0000
  Ta  Ta9       1.0  0.50061  0.12538  0.75032  1.0000
  Ta  Ta10      1.0  0.50055  0.62543  0.75042  1.0000
  Ta  Ta11      1.0  0.50059  0.87540  0.25045  1.0000
  Ta  Ta12      1.0  0.50054  0.37544  0.25038  1.0000
  Ta  Ta13      1.0  0.00050  0.75040  0.50049  1.0000
  Ta  Ta14      1.0  0.00051  0.25042  0.50047  1.0000
  Ta  Ta15      1.0  0.00052  0.50044  0.00048  1.0000
  Ta  Ta16      1.0  0.00051  0.00046  0.00051  1.0000
  Ta  Ta17      1.0  0.75058  0.34724  0.80691  1.0000
  Ta  Ta18      1.0  0.75059  0.84724  0.80691  1.0000
  Ta  Ta19      1.0  0.75055  0.09724  0.30689  1.0000
  Ta  Ta20      1.0  0.75056  0.59721  0.30689  1.0000
  Ta  Ta21      1.0  0.25063  0.13137  0.87540  1.0000
  Ta  Ta22      1.0  0.25058  0.63141  0.87539  1.0000
  Ta  Ta23      1.0  0.25055  0.88141  0.37542  1.0000
  Ta  Ta24      1.0  0.25057  0.38140  0.37539  1.0000
  Ta  Ta25      1.0  0.25056  0.15376  0.55693  1.0000
  Ta  Ta26      1.0  0.25054  0.65372  0.55690  1.0000
  Ta  Ta27      1.0  0.25057  0.90376  0.05697  1.0000
  Ta  Ta28      1.0  0.25054  0.40374  0.05696  1.0000
  Ta  Ta29      1.0  0.25046  0.90373  0.69383  1.0000
  Ta  Ta30      1.0  0.25050  0.40371  0.69385  1.0000
  Ta  Ta31      1.0  0.25049  0.65376  0.19380  1.0000
  Ta  Ta32      1.0  0.25048  0.15375  0.19381  1.0000
  O   O1        1.0  0.40853  0.17984  0.61211  1.0000
  O   O2        1.0  0.40848  0.67986  0.61219  1.0000
  O   O3        1.0  0.40852  0.92974  0.11211  1.0000
  O   O4        1.0  0.40852  0.42986  0.11217  1.0000
  O   O5        1.0  0.40861  0.15611  0.87384  1.0000
  O   O6        1.0  0.40860  0.65616  0.87396  1.0000
  O   O7        1.0  0.40859  0.90604  0.37391  1.0000
  O   O8        1.0  0.40860  0.40617  0.37392  1.0000
  O   O9        1.0  0.40852  0.97153  0.71918  1.0000
  O   O10       1.0  0.40851  0.47158  0.71913  1.0000
  O   O11       1.0  0.40850  0.72153  0.21912  1.0000
  O   O12       1.0  0.40855  0.22158  0.21913  1.0000
  O   O13       1.0  0.09255  0.07718  0.87700  1.0000
  O   O14       1.0  0.09251  0.57714  0.87691  1.0000
  O   O15       1.0  0.09246  0.82719  0.37688  1.0000
  O   O16       1.0  0.09251  0.32714  0.37694  1.0000
  O   O17       1.0  0.09254  0.85093  0.63863  1.0000
  O   O18       1.0  0.09260  0.35089  0.63860  1.0000
  O   O19       1.0  0.09255  0.60087  0.13859  1.0000
  O   O20       1.0  0.09258  0.10092  0.13863  1.0000
  O   O21       1.0  0.09253  0.14256  0.53156  1.0000
  O   O22       1.0  0.09252  0.64255  0.53170  1.0000
  O   O23       1.0  0.09254  0.89259  0.03158  1.0000
  O   O24       1.0  0.09252  0.39253  0.03155  1.0000
  O   O25       1.0  0.59250  0.07098  0.88863  1.0000
  O   O26       1.0  0.59247  0.57105  0.88867  1.0000
  O   O27       1.0  0.59253  0.82100  0.38861  1.0000
  O   O28       1.0  0.59251  0.32103  0.38856  1.0000
  O   O29       1.0  0.59251  0.09490  0.62683  1.0000
  O   O30       1.0  0.59253  0.59495  0.62689  1.0000
  O   O31       1.0  0.59251  0.84485  0.12690  1.0000
  O   O32       1.0  0.59253  0.34495  0.12684  1.0000
  O   O33       1.0  0.59254  0.27933  0.78152  1.0000
  O   O34       1.0  0.59254  0.77937  0.78154  1.0000
  O   O35       1.0  0.59249  0.02938  0.28154  1.0000
  O   O36       1.0  0.59254  0.52939  0.28155  1.0000
  O   O37       1.0  0.90863  0.17384  0.62401  1.0000
  O   O38       1.0  0.90858  0.67398  0.62402  1.0000
  O   O39       1.0  0.90859  0.92393  0.12402  1.0000
  O   O40       1.0  0.90859  0.42393  0.12394  1.0000
  O   O41       1.0  0.90857  0.40012  0.86208  1.0000
  O   O42       1.0  0.90861  0.90015  0.86210  1.0000
  O   O43       1.0  0.90856  0.15005  0.36215  1.0000
  O   O44       1.0  0.90858  0.65007  0.36216  1.0000
  O   O45       1.0  0.90848  0.10830  0.96923  1.0000
  O   O46       1.0  0.90847  0.60828  0.96912  1.0000
  O   O47       1.0  0.90849  0.85828  0.46919  1.0000
  O   O48       1.0  0.90846  0.35823  0.46912  1.0000
  O   O49       1.0  0.75053  0.81385  0.62538  1.0000
  O   O50       1.0  0.75051  0.31373  0.62535  1.0000
  O   O51       1.0  0.75053  0.56378  0.12534  1.0000
  O   O52       1.0  0.75053  0.06386  0.12534  1.0000
  O   O53       1.0  0.75063  0.00012  0.74950  1.0000
  O   O54       1.0  0.75051  0.50004  0.74939  1.0000
  O   O55       1.0  0.75064  0.75001  0.24936  1.0000
  O   O56       1.0  0.75056  0.25005  0.24943  1.0000
  O   O57       1.0  0.75039  0.00005  0.50119  1.0000
  O   O58       1.0  0.75056  0.50005  0.50126  1.0000
  O   O59       1.0  0.75055  0.75005  0.00119  1.0000
  O   O60       1.0  0.75052  0.25011  0.00116  1.0000
  O   O61       1.0  0.25056  0.43712  0.87539  1.0000
  O   O62       1.0  0.25056  0.93726  0.87540  1.0000
  O   O63       1.0  0.25057  0.18721  0.37536  1.0000
  O   O64       1.0  0.25054  0.68716  0.37539  1.0000
  O   O65       1.0  0.25050  0.25089  0.75129  1.0000
  O   O66       1.0  0.25055  0.75097  0.75131  1.0000
  O   O67       1.0  0.25058  0.00094  0.25131  1.0000
  O   O68       1.0  0.25053  0.50092  0.25120  1.0000
  O   O69       1.0  0.25061  0.25094  0.99950  1.0000
  O   O70       1.0  0.25055  0.75097  0.99947  1.0000
  O   O71       1.0  0.25061  0.00097  0.49947  1.0000
  O   O72       1.0  0.25056  0.50094  0.49947  1.0000
  O   O73       1.0  0.28193  0.82085  0.54729  1.0000
  O   O74       1.0  0.28200  0.32084  0.54729  1.0000
  O   O75       1.0  0.28197  0.57086  0.04727  1.0000
  O   O76       1.0  0.28200  0.07084  0.04733  1.0000
  O   O77       1.0  0.21908  0.05512  0.70346  1.0000
  O   O78       1.0  0.21915  0.55515  0.70352  1.0000
  O   O79       1.0  0.21907  0.80514  0.20353  1.0000
  O   O80       1.0  0.21910  0.30516  0.20351  1.0000
  O   O81       1.0  0.71913  0.43014  0.95340  1.0000
  O   O82       1.0  0.71910  0.93010  0.95342  1.0000
  O   O83       1.0  0.71913  0.18015  0.45342  1.0000
  O   O84       1.0  0.71911  0.68012  0.45341  1.0000
  O   O85       1.0  0.78194  0.19584  0.79729  1.0000
  O   O86       1.0  0.78192  0.69582  0.79726  1.0000
  O   O87       1.0  0.78191  0.94581  0.29726  1.0000
  O   O88       1.0  0.78193  0.44583  0.29728  1.0000
