data_image0
_chemical_formula_structural       Li84Bi12O72
_chemical_formula_sum              "Li84 Bi12 O72"
_cell_length_a       10.8999
_cell_length_b       14.6739
_cell_length_c       10.8107
_cell_angle_alpha    100.999
_cell_angle_beta     106.004
_cell_angle_gamma    80.0091

_space_group_name_H-M_alt    "P 1"
_space_group_IT_number       1

loop_
  _space_group_symop_operation_xyz
  'x, y, z'

loop_
  _atom_site_type_symbol
  _atom_site_label
  _atom_site_symmetry_multiplicity
  _atom_site_fract_x
  _atom_site_fract_y
  _atom_site_fract_z
  _atom_site_occupancy
  Li  Li1       1.0  0.38437  0.85043  0.80898  1.0000
  Li  Li2       1.0  0.55105  0.18378  0.80897  1.0000
  Li  Li3       1.0  0.38439  0.35044  0.30891  1.0000
  Li  Li4       1.0  0.71768  0.51713  0.80891  1.0000
  Li  Li5       1.0  0.55105  0.68378  0.30891  1.0000
  Li  Li6       1.0  0.88434  0.85046  0.80899  1.0000
  Li  Li7       1.0  0.71771  0.01711  0.30895  1.0000
  Li  Li8       1.0  0.05107  0.18376  0.80890  1.0000
  Li  Li9       1.0  0.88446  0.35045  0.30892  1.0000
  Li  Li10      1.0  0.21770  0.51712  0.80897  1.0000
  Li  Li11      1.0  0.05110  0.68379  0.30900  1.0000
  Li  Li12      1.0  0.21776  0.01710  0.30897  1.0000
  Li  Li13      1.0  0.46767  0.65217  0.80655  1.0000
  Li  Li14      1.0  0.63443  0.98548  0.80662  1.0000
  Li  Li15      1.0  0.46764  0.15219  0.30654  1.0000
  Li  Li16      1.0  0.80110  0.31884  0.80658  1.0000
  Li  Li17      1.0  0.63436  0.48548  0.30660  1.0000
  Li  Li18      1.0  0.96760  0.65221  0.80656  1.0000
  Li  Li19      1.0  0.80103  0.81881  0.30663  1.0000
  Li  Li20      1.0  0.13438  0.98546  0.80665  1.0000
  Li  Li21      1.0  0.96769  0.15221  0.30659  1.0000
  Li  Li22      1.0  0.30104  0.31884  0.80666  1.0000
  Li  Li23      1.0  0.13435  0.48544  0.30660  1.0000
  Li  Li24      1.0  0.30102  0.81885  0.30661  1.0000
  Li  Li25      1.0  0.56375  0.77548  0.99126  1.0000
  Li  Li26      1.0  0.73040  0.10885  0.99120  1.0000
  Li  Li27      1.0  0.56372  0.27549  0.49125  1.0000
  Li  Li28      1.0  0.89697  0.44232  0.99128  1.0000
  Li  Li29      1.0  0.73047  0.60884  0.49129  1.0000
  Li  Li30      1.0  0.06375  0.77553  0.99132  1.0000
  Li  Li31      1.0  0.89709  0.94227  0.49131  1.0000
  Li  Li32      1.0  0.23036  0.10890  0.99118  1.0000
  Li  Li33      1.0  0.06372  0.27559  0.49129  1.0000
  Li  Li34      1.0  0.39705  0.44222  0.99123  1.0000
  Li  Li35      1.0  0.23041  0.60890  0.49122  1.0000
  Li  Li36      1.0  0.39699  0.94219  0.49130  1.0000
  Li  Li37      1.0  0.43509  0.72177  0.53253  1.0000
  Li  Li38      1.0  0.60176  0.05505  0.53239  1.0000
  Li  Li39      1.0  0.43515  0.22172  0.03241  1.0000
  Li  Li40      1.0  0.76843  0.38838  0.53248  1.0000
  Li  Li41      1.0  0.60173  0.55514  0.03241  1.0000
  Li  Li42      1.0  0.93510  0.72176  0.53244  1.0000
  Li  Li43      1.0  0.76847  0.88830  0.03243  1.0000
  Li  Li44      1.0  0.10180  0.05508  0.53244  1.0000
  Li  Li45      1.0  0.93509  0.22176  0.03243  1.0000
  Li  Li46      1.0  0.26844  0.38839  0.53242  1.0000
  Li  Li47      1.0  0.10172  0.55509  0.03244  1.0000
  Li  Li48      1.0  0.26837  0.88834  0.03242  1.0000
  Li  Li49      1.0  0.52551  0.86155  0.68713  1.0000
  Li  Li50      1.0  0.69219  0.19485  0.68709  1.0000
  Li  Li51      1.0  0.52554  0.36145  0.18703  1.0000
  Li  Li52      1.0  0.85886  0.52814  0.68711  1.0000
  Li  Li53      1.0  0.69222  0.69482  0.18708  1.0000
  Li  Li54      1.0  0.02543  0.86159  0.68712  1.0000
  Li  Li55      1.0  0.85878  0.02817  0.18713  1.0000
  Li  Li56      1.0  0.19216  0.19484  0.68712  1.0000
  Li  Li57      1.0  0.02550  0.36147  0.18704  1.0000
  Li  Li58      1.0  0.35881  0.52812  0.68705  1.0000
  Li  Li59      1.0  0.19217  0.69483  0.18713  1.0000
  Li  Li60      1.0  0.35879  0.02818  0.18705  1.0000
  Li  Li61      1.0  0.61444  0.63751  0.67726  1.0000
  Li  Li62      1.0  0.78118  0.97086  0.67733  1.0000
  Li  Li63      1.0  0.61447  0.13745  0.17728  1.0000
  Li  Li64      1.0  0.94776  0.30416  0.67734  1.0000
  Li  Li65      1.0  0.78104  0.47083  0.17735  1.0000
  Li  Li66      1.0  0.11447  0.63749  0.67739  1.0000
  Li  Li67      1.0  0.94778  0.80415  0.17735  1.0000
  Li  Li68      1.0  0.28104  0.97081  0.67731  1.0000
  Li  Li69      1.0  0.11436  0.13754  0.17730  1.0000
  Li  Li70      1.0  0.44777  0.30417  0.67736  1.0000
  Li  Li71      1.0  0.28118  0.47083  0.17730  1.0000
  Li  Li72      1.0  0.44776  0.80419  0.17730  1.0000
  Li  Li73      1.0  0.69155  0.76840  0.81042  1.0000
  Li  Li74      1.0  0.85838  0.10176  0.81042  1.0000
  Li  Li75      1.0  0.69156  0.26846  0.31047  1.0000
  Li  Li76      1.0  0.02501  0.43508  0.81042  1.0000
  Li  Li77      1.0  0.85836  0.60176  0.31051  1.0000
  Li  Li78      1.0  0.19157  0.76840  0.81042  1.0000
  Li  Li79      1.0  0.02499  0.93512  0.31051  1.0000
  Li  Li80      1.0  0.35835  0.10176  0.81043  1.0000
  Li  Li81      1.0  0.19161  0.26847  0.31053  1.0000
  Li  Li82      1.0  0.52500  0.43513  0.81051  1.0000
  Li  Li83      1.0  0.35830  0.60173  0.31043  1.0000
  Li  Li84      1.0  0.52502  0.93508  0.31050  1.0000
  Bi  Bi1       1.0  0.16968  0.82780  0.50290  1.0000
  Bi  Bi2       1.0  0.33634  0.16111  0.50286  1.0000
  Bi  Bi3       1.0  0.16968  0.32780  0.00292  1.0000
  Bi  Bi4       1.0  0.50301  0.49444  0.50286  1.0000
  Bi  Bi5       1.0  0.33633  0.66114  0.00292  1.0000
  Bi  Bi6       1.0  0.66967  0.82780  0.50289  1.0000
  Bi  Bi7       1.0  0.50299  0.99445  0.00290  1.0000
  Bi  Bi8       1.0  0.83633  0.16113  0.50285  1.0000
  Bi  Bi9       1.0  0.66972  0.32778  0.00289  1.0000
  Bi  Bi10      1.0  0.00302  0.49446  0.50292  1.0000
  Bi  Bi11      1.0  0.83634  0.66113  0.00290  1.0000
  Bi  Bi12      1.0  0.00301  0.99448  0.00295  1.0000
  O   O1        1.0  0.37140  0.75445  0.89186  1.0000
  O   O2        1.0  0.53813  0.08775  0.89188  1.0000
  O   O3        1.0  0.37145  0.25441  0.39188  1.0000
  O   O4        1.0  0.70478  0.42111  0.89188  1.0000
  O   O5        1.0  0.53813  0.58774  0.39185  1.0000
  O   O6        1.0  0.87135  0.75447  0.89188  1.0000
  O   O7        1.0  0.70482  0.92110  0.39193  1.0000
  O   O8        1.0  0.03813  0.08776  0.89194  1.0000
  O   O9        1.0  0.87139  0.25443  0.39184  1.0000
  O   O10       1.0  0.20483  0.42108  0.89189  1.0000
  O   O11       1.0  0.03815  0.58776  0.39189  1.0000
  O   O12       1.0  0.20482  0.92110  0.39188  1.0000
  O   O13       1.0  0.35545  0.84637  0.62179  1.0000
  O   O14       1.0  0.52214  0.17973  0.62172  1.0000
  O   O15       1.0  0.35546  0.34638  0.12179  1.0000
  O   O16       1.0  0.68879  0.51301  0.62175  1.0000
  O   O17       1.0  0.52218  0.67978  0.12173  1.0000
  O   O18       1.0  0.85549  0.84639  0.62175  1.0000
  O   O19       1.0  0.68879  0.01303  0.12173  1.0000
  O   O20       1.0  0.02210  0.17973  0.62170  1.0000
  O   O21       1.0  0.85549  0.34639  0.12173  1.0000
  O   O22       1.0  0.18887  0.51303  0.62173  1.0000
  O   O23       1.0  0.02211  0.67975  0.12178  1.0000
  O   O24       1.0  0.18877  0.01307  0.12179  1.0000
  O   O25       1.0  0.42743  0.61392  0.61857  1.0000
  O   O26       1.0  0.59401  0.94725  0.61856  1.0000
  O   O27       1.0  0.42737  0.11393  0.11855  1.0000
  O   O28       1.0  0.76079  0.28059  0.61861  1.0000
  O   O29       1.0  0.59409  0.44727  0.11858  1.0000
  O   O30       1.0  0.92742  0.61395  0.61862  1.0000
  O   O31       1.0  0.76079  0.78059  0.11861  1.0000
  O   O32       1.0  0.09404  0.94731  0.61853  1.0000
  O   O33       1.0  0.92732  0.11396  0.11857  1.0000
  O   O34       1.0  0.26071  0.28058  0.61857  1.0000
  O   O35       1.0  0.09408  0.44728  0.11857  1.0000
  O   O36       1.0  0.26064  0.78063  0.11857  1.0000
  O   O37       1.0  0.57819  0.87790  0.87972  1.0000
  O   O38       1.0  0.74492  0.21117  0.87974  1.0000
  O   O39       1.0  0.57827  0.37788  0.37973  1.0000
  O   O40       1.0  0.91154  0.54455  0.87971  1.0000
  O   O41       1.0  0.74489  0.71118  0.37975  1.0000
  O   O42       1.0  0.07816  0.87790  0.87976  1.0000
  O   O43       1.0  0.91156  0.04455  0.37975  1.0000
  O   O44       1.0  0.24493  0.21122  0.87974  1.0000
  O   O45       1.0  0.07821  0.37786  0.37974  1.0000
  O   O46       1.0  0.41151  0.54453  0.87974  1.0000
  O   O47       1.0  0.24491  0.71125  0.37971  1.0000
  O   O48       1.0  0.41151  0.04457  0.37968  1.0000
  O   O49       1.0  0.65181  0.65565  0.86646  1.0000
  O   O50       1.0  0.81855  0.98895  0.86646  1.0000
  O   O51       1.0  0.65183  0.15565  0.36649  1.0000
  O   O52       1.0  0.98519  0.32232  0.86646  1.0000
  O   O53       1.0  0.81851  0.48894  0.36651  1.0000
  O   O54       1.0  0.15175  0.65560  0.86650  1.0000
  O   O55       1.0  0.98521  0.82231  0.36650  1.0000
  O   O56       1.0  0.31847  0.98892  0.86647  1.0000
  O   O57       1.0  0.15185  0.15567  0.36646  1.0000
  O   O58       1.0  0.48519  0.32225  0.86646  1.0000
  O   O59       1.0  0.31854  0.48900  0.36647  1.0000
  O   O60       1.0  0.48518  0.82230  0.36644  1.0000
  O   O61       1.0  0.62334  0.74786  0.62173  1.0000
  O   O62       1.0  0.78998  0.08118  0.62168  1.0000
  O   O63       1.0  0.62331  0.24782  0.12169  1.0000
  O   O64       1.0  0.95665  0.41448  0.62172  1.0000
  O   O65       1.0  0.79001  0.58116  0.12175  1.0000
  O   O66       1.0  0.12337  0.74787  0.62182  1.0000
  O   O67       1.0  0.95673  0.91451  0.12174  1.0000
  O   O68       1.0  0.29003  0.08116  0.62167  1.0000
  O   O69       1.0  0.12328  0.24786  0.12171  1.0000
  O   O70       1.0  0.45664  0.41450  0.62169  1.0000
  O   O71       1.0  0.29003  0.58118  0.12179  1.0000
  O   O72       1.0  0.45672  0.91453  0.12180  1.0000
