data_image0
_chemical_formula_structural       Ca32Si16O64
_chemical_formula_sum              "Ca32 Si16 O64"
_cell_length_a       10.186
_cell_length_b       13.51
_cell_length_c       11.226
_cell_angle_alpha    89.9981
_cell_angle_beta     89.9977
_cell_angle_gamma    89.9996

_space_group_name_H-M_alt    "P 1"
_space_group_IT_number       1

loop_
  _space_group_symop_operation_xyz
  'x, y, z'

loop_
  _atom_site_type_symbol
  _atom_site_label
  _atom_site_symmetry_multiplicity
  _atom_site_fract_x
  _atom_site_fract_y
  _atom_site_fract_z
  _atom_site_occupancy
  Ca  Ca1       1.0  0.24533  0.37538  0.78105  1.0000
  Ca  Ca2       1.0  0.24546  0.87546  0.78113  1.0000
  Ca  Ca3       1.0  0.74552  0.37538  0.78102  1.0000
  Ca  Ca4       1.0  0.74535  0.87538  0.78110  1.0000
  Ca  Ca5       1.0  0.49557  0.12542  0.71974  1.0000
  Ca  Ca6       1.0  0.49541  0.62542  0.71969  1.0000
  Ca  Ca7       1.0  0.99540  0.12532  0.71970  1.0000
  Ca  Ca8       1.0  0.99533  0.62540  0.71970  1.0000
  Ca  Ca9       1.0  0.25557  0.12539  0.21971  1.0000
  Ca  Ca10      1.0  0.25542  0.62542  0.21970  1.0000
  Ca  Ca11      1.0  0.75568  0.12544  0.21971  1.0000
  Ca  Ca12      1.0  0.75558  0.62534  0.21963  1.0000
  Ca  Ca13      1.0  0.00563  0.37543  0.28108  1.0000
  Ca  Ca14      1.0  0.00549  0.87539  0.28102  1.0000
  Ca  Ca15      1.0  0.50550  0.37539  0.28112  1.0000
  Ca  Ca16      1.0  0.50561  0.87539  0.28107  1.0000
  Ca  Ca17      1.0  0.25055  0.25037  0.50043  1.0000
  Ca  Ca18      1.0  0.25051  0.75046  0.50038  1.0000
  Ca  Ca19      1.0  0.75056  0.25031  0.50041  1.0000
  Ca  Ca20      1.0  0.75052  0.75034  0.50038  1.0000
  Ca  Ca21      1.0  0.00054  0.25034  0.00044  1.0000
  Ca  Ca22      1.0  0.00040  0.75037  0.00038  1.0000
  Ca  Ca23      1.0  0.50049  0.25038  0.00038  1.0000
  Ca  Ca24      1.0  0.50042  0.75033  0.00043  1.0000
  Ca  Ca25      1.0  0.25059  0.00041  0.50034  1.0000
  Ca  Ca26      1.0  0.25057  0.50049  0.50049  1.0000
  Ca  Ca27      1.0  0.75053  0.00033  0.50032  1.0000
  Ca  Ca28      1.0  0.75044  0.50032  0.50030  1.0000
  Ca  Ca29      1.0  0.00060  0.00032  0.00045  1.0000
  Ca  Ca30      1.0  0.00045  0.50028  0.00034  1.0000
  Ca  Ca31      1.0  0.50051  0.00039  0.00051  1.0000
  Ca  Ca32      1.0  0.50041  0.50033  0.00037  1.0000
  Si  Si1       1.0  0.46450  0.37539  0.59690  1.0000
  Si  Si2       1.0  0.46455  0.87541  0.59679  1.0000
  Si  Si3       1.0  0.96455  0.37538  0.59666  1.0000
  Si  Si4       1.0  0.96447  0.87538  0.59685  1.0000
  Si  Si5       1.0  0.21452  0.12537  0.90396  1.0000
  Si  Si6       1.0  0.21439  0.62540  0.90400  1.0000
  Si  Si7       1.0  0.71457  0.12536  0.90412  1.0000
  Si  Si8       1.0  0.71439  0.62532  0.90402  1.0000
  Si  Si9       1.0  0.03654  0.12535  0.40398  1.0000
  Si  Si10      1.0  0.03647  0.62543  0.40413  1.0000
  Si  Si11      1.0  0.53659  0.12534  0.40398  1.0000
  Si  Si12      1.0  0.53647  0.62543  0.40391  1.0000
  Si  Si13      1.0  0.28642  0.37536  0.09687  1.0000
  Si  Si14      1.0  0.28649  0.87536  0.09686  1.0000
  Si  Si15      1.0  0.78650  0.37535  0.09679  1.0000
  Si  Si16      1.0  0.78644  0.87535  0.09671  1.0000
  O   O1        1.0  0.10185  0.22287  0.33813  1.0000
  O   O2        1.0  0.10172  0.72286  0.33813  1.0000
  O   O3        1.0  0.60188  0.22288  0.33813  1.0000
  O   O4        1.0  0.60186  0.72285  0.33801  1.0000
  O   O5        1.0  0.35183  0.27791  0.16277  1.0000
  O   O6        1.0  0.35182  0.77786  0.16270  1.0000
  O   O7        1.0  0.85190  0.27790  0.16271  1.0000
  O   O8        1.0  0.85170  0.77786  0.16263  1.0000
  O   O9        1.0  0.39923  0.47287  0.66283  1.0000
  O   O10       1.0  0.39934  0.97291  0.66268  1.0000
  O   O11       1.0  0.89923  0.47285  0.66255  1.0000
  O   O12       1.0  0.89910  0.97285  0.66267  1.0000
  O   O13       1.0  0.14916  0.02788  0.83806  1.0000
  O   O14       1.0  0.14911  0.52796  0.83806  1.0000
  O   O15       1.0  0.64925  0.02787  0.83831  1.0000
  O   O16       1.0  0.64914  0.52785  0.83803  1.0000
  O   O17       1.0  0.39919  0.27787  0.66278  1.0000
  O   O18       1.0  0.39920  0.77799  0.66276  1.0000
  O   O19       1.0  0.89930  0.27787  0.66257  1.0000
  O   O20       1.0  0.89917  0.77789  0.66273  1.0000
  O   O21       1.0  0.14916  0.22285  0.83807  1.0000
  O   O22       1.0  0.14916  0.72290  0.83812  1.0000
  O   O23       1.0  0.64933  0.22283  0.83812  1.0000
  O   O24       1.0  0.64913  0.72283  0.83815  1.0000
  O   O25       1.0  0.10181  0.02792  0.33802  1.0000
  O   O26       1.0  0.10183  0.52796  0.33830  1.0000
  O   O27       1.0  0.60190  0.02790  0.33802  1.0000
  O   O28       1.0  0.60173  0.52794  0.33802  1.0000
  O   O29       1.0  0.35169  0.47287  0.16273  1.0000
  O   O30       1.0  0.35177  0.97283  0.16279  1.0000
  O   O31       1.0  0.85184  0.47285  0.16260  1.0000
  O   O32       1.0  0.85170  0.97283  0.16262  1.0000
  O   O33       1.0  0.39944  0.37544  0.46127  1.0000
  O   O34       1.0  0.39953  0.87544  0.46117  1.0000
  O   O35       1.0  0.89933  0.37533  0.46110  1.0000
  O   O36       1.0  0.89951  0.87532  0.46123  1.0000
  O   O37       1.0  0.14949  0.12536  0.03961  1.0000
  O   O38       1.0  0.14931  0.62535  0.03959  1.0000
  O   O39       1.0  0.64939  0.12545  0.03969  1.0000
  O   O40       1.0  0.64928  0.62528  0.03964  1.0000
  O   O41       1.0  0.10158  0.12531  0.53958  1.0000
  O   O42       1.0  0.10163  0.62553  0.53968  1.0000
  O   O43       1.0  0.60164  0.12531  0.53961  1.0000
  O   O44       1.0  0.60151  0.62536  0.53950  1.0000
  O   O45       1.0  0.35144  0.37533  0.96126  1.0000
  O   O46       1.0  0.35157  0.87543  0.96124  1.0000
  O   O47       1.0  0.85153  0.37532  0.96116  1.0000
  O   O48       1.0  0.85158  0.87536  0.96114  1.0000
  O   O49       1.0  0.12638  0.37533  0.09318  1.0000
  O   O50       1.0  0.12645  0.87529  0.09320  1.0000
  O   O51       1.0  0.62646  0.37534  0.09317  1.0000
  O   O52       1.0  0.62640  0.87535  0.09304  1.0000
  O   O53       1.0  0.37655  0.12538  0.40761  1.0000
  O   O54       1.0  0.37646  0.62549  0.40759  1.0000
  O   O55       1.0  0.87652  0.12533  0.40763  1.0000
  O   O56       1.0  0.87646  0.62534  0.40773  1.0000
  O   O57       1.0  0.37459  0.12539  0.90761  1.0000
  O   O58       1.0  0.37440  0.62535  0.90766  1.0000
  O   O59       1.0  0.87460  0.12531  0.90781  1.0000
  O   O60       1.0  0.87442  0.62534  0.90769  1.0000
  O   O61       1.0  0.12459  0.37541  0.59296  1.0000
  O   O62       1.0  0.12449  0.87546  0.59322  1.0000
  O   O63       1.0  0.62454  0.37532  0.59320  1.0000
  O   O64       1.0  0.62459  0.87534  0.59315  1.0000
