data_image0
_chemical_formula_structural       K32Ga32O64
_chemical_formula_sum              "K32 Ga32 O64"
_cell_length_a       11.0499
_cell_length_b       11.076
_cell_length_c       15.8209
_cell_angle_alpha    90.0001
_cell_angle_beta     90
_cell_angle_gamma    90

_space_group_name_H-M_alt    "P 1"
_space_group_IT_number       1

loop_
  _space_group_symop_operation_xyz
  'x, y, z'

loop_
  _atom_site_type_symbol
  _atom_site_label
  _atom_site_symmetry_multiplicity
  _atom_site_fract_x
  _atom_site_fract_y
  _atom_site_fract_z
  _atom_site_occupancy
  K   K1        1.0  0.15052  0.26646  0.31697  1.0000
  K   K2        1.0  0.65020  0.26647  0.31702  1.0000
  K   K3        1.0  0.40034  0.23449  0.68354  1.0000
  K   K4        1.0  0.90044  0.23441  0.68366  1.0000
  K   K5        1.0  0.35068  0.76667  0.18360  1.0000
  K   K6        1.0  0.85060  0.76655  0.18363  1.0000
  K   K7        1.0  0.10076  0.73439  0.81710  1.0000
  K   K8        1.0  0.60062  0.73440  0.81703  1.0000
  K   K9        1.0  0.35064  0.73441  0.68365  1.0000
  K   K10       1.0  0.85055  0.73425  0.68366  1.0000
  K   K11       1.0  0.10052  0.76656  0.31702  1.0000
  K   K12       1.0  0.60066  0.76643  0.31698  1.0000
  K   K13       1.0  0.15053  0.23458  0.81712  1.0000
  K   K14       1.0  0.65039  0.23452  0.81700  1.0000
  K   K15       1.0  0.40050  0.26656  0.18363  1.0000
  K   K16       1.0  0.90024  0.26653  0.18361  1.0000
  K   K17       1.0  0.12921  0.01711  0.43936  1.0000
  K   K18       1.0  0.62943  0.01699  0.43938  1.0000
  K   K19       1.0  0.37918  0.48365  0.56139  1.0000
  K   K20       1.0  0.87910  0.48355  0.56131  1.0000
  K   K21       1.0  0.37165  0.51717  0.06130  1.0000
  K   K22       1.0  0.87189  0.51727  0.06136  1.0000
  K   K23       1.0  0.12166  0.98370  0.93941  1.0000
  K   K24       1.0  0.62167  0.98358  0.93922  1.0000
  K   K25       1.0  0.37197  0.98373  0.56127  1.0000
  K   K26       1.0  0.87182  0.98365  0.56132  1.0000
  K   K27       1.0  0.12193  0.51702  0.43946  1.0000
  K   K28       1.0  0.62174  0.51723  0.43932  1.0000
  K   K29       1.0  0.12904  0.48362  0.93937  1.0000
  K   K30       1.0  0.62912  0.48383  0.93940  1.0000
  K   K31       1.0  0.37900  0.01726  0.06120  1.0000
  K   K32       1.0  0.87904  0.01721  0.06130  1.0000
  Ga  Ga1       1.0  0.39189  0.26330  0.43575  1.0000
  Ga  Ga2       1.0  0.89189  0.26317  0.43564  1.0000
  Ga  Ga3       1.0  0.14187  0.23739  0.56495  1.0000
  Ga  Ga4       1.0  0.64192  0.23750  0.56495  1.0000
  Ga  Ga5       1.0  0.10893  0.76326  0.06500  1.0000
  Ga  Ga6       1.0  0.60895  0.76322  0.06504  1.0000
  Ga  Ga7       1.0  0.35891  0.73757  0.93574  1.0000
  Ga  Ga8       1.0  0.85890  0.73752  0.93575  1.0000
  Ga  Ga9       1.0  0.10888  0.73746  0.56499  1.0000
  Ga  Ga10      1.0  0.60894  0.73744  0.56505  1.0000
  Ga  Ga11      1.0  0.35898  0.76333  0.43570  1.0000
  Ga  Ga12      1.0  0.85892  0.76323  0.43571  1.0000
  Ga  Ga13      1.0  0.39188  0.23754  0.93572  1.0000
  Ga  Ga14      1.0  0.89189  0.23755  0.93582  1.0000
  Ga  Ga15      1.0  0.14184  0.26329  0.06501  1.0000
  Ga  Ga16      1.0  0.64183  0.26321  0.06491  1.0000
  Ga  Ga17      1.0  0.38326  0.00936  0.31134  1.0000
  Ga  Ga18      1.0  0.88329  0.00931  0.31129  1.0000
  Ga  Ga19      1.0  0.13321  0.49146  0.68930  1.0000
  Ga  Ga20      1.0  0.63319  0.49151  0.68933  1.0000
  Ga  Ga21      1.0  0.11758  0.50938  0.18945  1.0000
  Ga  Ga22      1.0  0.61767  0.50916  0.18931  1.0000
  Ga  Ga23      1.0  0.36761  0.99166  0.81126  1.0000
  Ga  Ga24      1.0  0.86759  0.99159  0.81135  1.0000
  Ga  Ga25      1.0  0.11763  0.99149  0.68935  1.0000
  Ga  Ga26      1.0  0.61766  0.99160  0.68935  1.0000
  Ga  Ga27      1.0  0.36765  0.50940  0.31131  1.0000
  Ga  Ga28      1.0  0.86758  0.50929  0.31134  1.0000
  Ga  Ga29      1.0  0.38319  0.49152  0.81139  1.0000
  Ga  Ga30      1.0  0.88319  0.49147  0.81136  1.0000
  Ga  Ga31      1.0  0.13330  0.00932  0.18931  1.0000
  Ga  Ga32      1.0  0.63330  0.00934  0.18929  1.0000
  O   O1        1.0  0.22212  0.97949  0.28661  1.0000
  O   O2        1.0  0.72211  0.97962  0.28660  1.0000
  O   O3        1.0  0.47205  0.52123  0.71409  1.0000
  O   O4        1.0  0.97205  0.52107  0.71404  1.0000
  O   O5        1.0  0.27874  0.47971  0.21409  1.0000
  O   O6        1.0  0.77884  0.47949  0.21403  1.0000
  O   O7        1.0  0.02885  0.02116  0.78668  1.0000
  O   O8        1.0  0.52877  0.02150  0.78657  1.0000
  O   O9        1.0  0.27889  0.02111  0.71388  1.0000
  O   O10       1.0  0.77888  0.02126  0.71400  1.0000
  O   O11       1.0  0.02881  0.47976  0.28673  1.0000
  O   O12       1.0  0.52882  0.47953  0.28659  1.0000
  O   O13       1.0  0.22202  0.52101  0.78665  1.0000
  O   O14       1.0  0.72205  0.52129  0.78661  1.0000
  O   O15       1.0  0.47207  0.97983  0.21397  1.0000
  O   O16       1.0  0.97216  0.97954  0.21402  1.0000
  O   O17       1.0  0.41910  0.16686  0.34250  1.0000
  O   O18       1.0  0.91935  0.16672  0.34243  1.0000
  O   O19       1.0  0.16930  0.33410  0.65801  1.0000
  O   O20       1.0  0.66938  0.33416  0.65804  1.0000
  O   O21       1.0  0.08167  0.66673  0.15813  1.0000
  O   O22       1.0  0.58189  0.66666  0.15819  1.0000
  O   O23       1.0  0.33194  0.83418  0.84254  1.0000
  O   O24       1.0  0.83152  0.83418  0.84265  1.0000
  O   O25       1.0  0.08142  0.83406  0.65812  1.0000
  O   O26       1.0  0.58158  0.83417  0.65811  1.0000
  O   O27       1.0  0.33190  0.66690  0.34243  1.0000
  O   O28       1.0  0.83163  0.66674  0.34250  1.0000
  O   O29       1.0  0.41913  0.33407  0.84253  1.0000
  O   O30       1.0  0.91912  0.33402  0.84257  1.0000
  O   O31       1.0  0.28599  0.30498  0.01271  1.0000
  O   O32       1.0  0.78605  0.30504  0.01279  1.0000
  O   O33       1.0  0.32420  0.40771  0.39919  1.0000
  O   O34       1.0  0.82404  0.40750  0.39911  1.0000
  O   O35       1.0  0.07399  0.09322  0.60158  1.0000
  O   O36       1.0  0.57412  0.09329  0.60154  1.0000
  O   O37       1.0  0.17687  0.90753  0.10155  1.0000
  O   O38       1.0  0.67691  0.90751  0.10153  1.0000
  O   O39       1.0  0.42687  0.59333  0.89914  1.0000
  O   O40       1.0  0.92685  0.59331  0.89908  1.0000
  O   O41       1.0  0.17692  0.59335  0.60163  1.0000
  O   O42       1.0  0.67693  0.59323  0.60158  1.0000
  O   O43       1.0  0.42692  0.90763  0.39913  1.0000
  O   O44       1.0  0.92679  0.90755  0.39912  1.0000
  O   O45       1.0  0.32393  0.09338  0.89902  1.0000
  O   O46       1.0  0.82406  0.09331  0.89916  1.0000
  O   O47       1.0  0.07414  0.40762  0.10162  1.0000
  O   O48       1.0  0.57399  0.40755  0.10145  1.0000
  O   O49       1.0  0.03607  0.30480  0.48789  1.0000
  O   O50       1.0  0.53610  0.30500  0.48793  1.0000
  O   O51       1.0  0.28613  0.19581  0.51279  1.0000
  O   O52       1.0  0.78600  0.19571  0.51259  1.0000
  O   O53       1.0  0.46486  0.80499  0.01272  1.0000
  O   O54       1.0  0.96490  0.80504  0.01265  1.0000
  O   O55       1.0  0.21471  0.69595  0.98787  1.0000
  O   O56       1.0  0.71484  0.69581  0.98802  1.0000
  O   O57       1.0  0.46487  0.69578  0.51269  1.0000
  O   O58       1.0  0.96493  0.69557  0.51255  1.0000
  O   O59       1.0  0.21491  0.80498  0.48806  1.0000
  O   O60       1.0  0.71487  0.80495  0.48806  1.0000
  O   O61       1.0  0.03611  0.19593  0.98793  1.0000
  O   O62       1.0  0.53604  0.19576  0.98789  1.0000
  O   O63       1.0  0.16926  0.16673  0.15811  1.0000
  O   O64       1.0  0.66935  0.16671  0.15804  1.0000
