data_image0
_chemical_formula_structural       Ca32Ti32O96
_chemical_formula_sum              "Ca32 Ti32 O96"
_cell_length_a       10.7427
_cell_length_b       10.9218
_cell_length_c       15.2701
_cell_angle_alpha    90
_cell_angle_beta     90.0001
_cell_angle_gamma    89.9998

_space_group_name_H-M_alt    "P 1"
_space_group_IT_number       1

loop_
  _space_group_symop_operation_xyz
  'x, y, z'

loop_
  _atom_site_type_symbol
  _atom_site_label
  _atom_site_symmetry_multiplicity
  _atom_site_fract_x
  _atom_site_fract_y
  _atom_site_fract_z
  _atom_site_occupancy
  Ca  Ca1       1.0  0.25482  0.27120  0.37538  1.0000
  Ca  Ca2       1.0  0.25479  0.27124  0.87530  1.0000
  Ca  Ca3       1.0  0.25500  0.77130  0.37536  1.0000
  Ca  Ca4       1.0  0.25473  0.77131  0.87536  1.0000
  Ca  Ca5       1.0  0.75481  0.27124  0.37535  1.0000
  Ca  Ca6       1.0  0.75484  0.27125  0.87526  1.0000
  Ca  Ca7       1.0  0.75489  0.77120  0.37530  1.0000
  Ca  Ca8       1.0  0.75470  0.77122  0.87530  1.0000
  Ca  Ca9       1.0  0.24620  0.22972  0.12532  1.0000
  Ca  Ca10      1.0  0.24615  0.22974  0.62527  1.0000
  Ca  Ca11      1.0  0.24613  0.72975  0.12534  1.0000
  Ca  Ca12      1.0  0.24615  0.72981  0.62536  1.0000
  Ca  Ca13      1.0  0.74623  0.22984  0.12528  1.0000
  Ca  Ca14      1.0  0.74616  0.22968  0.62528  1.0000
  Ca  Ca15      1.0  0.74626  0.72974  0.12527  1.0000
  Ca  Ca16      1.0  0.74636  0.72986  0.62543  1.0000
  Ca  Ca17      1.0  0.49627  0.02124  0.37532  1.0000
  Ca  Ca18      1.0  0.49624  0.02131  0.87532  1.0000
  Ca  Ca19      1.0  0.49628  0.52126  0.37529  1.0000
  Ca  Ca20      1.0  0.49616  0.52135  0.87531  1.0000
  Ca  Ca21      1.0  0.99631  0.02120  0.37526  1.0000
  Ca  Ca22      1.0  0.99612  0.02126  0.87530  1.0000
  Ca  Ca23      1.0  0.99621  0.52114  0.37538  1.0000
  Ca  Ca24      1.0  0.99628  0.52118  0.87534  1.0000
  Ca  Ca25      1.0  0.00485  0.47967  0.12524  1.0000
  Ca  Ca26      1.0  0.00481  0.47975  0.62521  1.0000
  Ca  Ca27      1.0  0.00477  0.97978  0.12534  1.0000
  Ca  Ca28      1.0  0.00495  0.97971  0.62531  1.0000
  Ca  Ca29      1.0  0.50488  0.47982  0.12532  1.0000
  Ca  Ca30      1.0  0.50479  0.47975  0.62533  1.0000
  Ca  Ca31      1.0  0.50489  0.97971  0.12527  1.0000
  Ca  Ca32      1.0  0.50486  0.97974  0.62528  1.0000
  Ti  Ti1       1.0  0.00049  0.25042  0.25028  1.0000
  Ti  Ti2       1.0  0.00045  0.25040  0.75026  1.0000
  Ti  Ti3       1.0  0.00058  0.75040  0.25033  1.0000
  Ti  Ti4       1.0  0.00044  0.75039  0.75039  1.0000
  Ti  Ti5       1.0  0.50048  0.25041  0.25034  1.0000
  Ti  Ti6       1.0  0.50044  0.25042  0.75029  1.0000
  Ti  Ti7       1.0  0.50051  0.75044  0.25030  1.0000
  Ti  Ti8       1.0  0.50035  0.75039  0.75032  1.0000
  Ti  Ti9       1.0  0.00049  0.25042  0.00030  1.0000
  Ti  Ti10      1.0  0.00050  0.25041  0.50030  1.0000
  Ti  Ti11      1.0  0.00038  0.75037  0.00034  1.0000
  Ti  Ti12      1.0  0.00052  0.75040  0.50032  1.0000
  Ti  Ti13      1.0  0.50045  0.25045  0.00033  1.0000
  Ti  Ti14      1.0  0.50053  0.25043  0.50034  1.0000
  Ti  Ti15      1.0  0.50042  0.75043  0.00030  1.0000
  Ti  Ti16      1.0  0.50059  0.75046  0.50037  1.0000
  Ti  Ti17      1.0  0.25058  0.00044  0.25031  1.0000
  Ti  Ti18      1.0  0.25052  0.00040  0.75035  1.0000
  Ti  Ti19      1.0  0.25056  0.50041  0.25036  1.0000
  Ti  Ti20      1.0  0.25043  0.50038  0.75030  1.0000
  Ti  Ti21      1.0  0.75053  0.00047  0.25031  1.0000
  Ti  Ti22      1.0  0.75050  0.00038  0.75027  1.0000
  Ti  Ti23      1.0  0.75058  0.50042  0.25032  1.0000
  Ti  Ti24      1.0  0.75049  0.50040  0.75030  1.0000
  Ti  Ti25      1.0  0.25042  0.00043  0.00034  1.0000
  Ti  Ti26      1.0  0.25056  0.00042  0.50035  1.0000
  Ti  Ti27      1.0  0.25052  0.50040  0.00035  1.0000
  Ti  Ti28      1.0  0.25061  0.50048  0.50032  1.0000
  Ti  Ti29      1.0  0.75051  0.00044  0.00029  1.0000
  Ti  Ti30      1.0  0.75058  0.00039  0.50028  1.0000
  Ti  Ti31      1.0  0.75047  0.50039  0.00030  1.0000
  Ti  Ti32      1.0  0.75048  0.50046  0.50033  1.0000
  O   O1        1.0  0.03861  0.24122  0.37535  1.0000
  O   O2        1.0  0.03863  0.24129  0.87535  1.0000
  O   O3        1.0  0.03868  0.74133  0.37535  1.0000
  O   O4        1.0  0.03853  0.74122  0.87536  1.0000
  O   O5        1.0  0.53863  0.24132  0.37538  1.0000
  O   O6        1.0  0.53856  0.24134  0.87532  1.0000
  O   O7        1.0  0.53863  0.74142  0.37535  1.0000
  O   O8        1.0  0.53853  0.74122  0.87533  1.0000
  O   O9        1.0  0.46242  0.25990  0.12536  1.0000
  O   O10       1.0  0.46234  0.25981  0.62533  1.0000
  O   O11       1.0  0.46233  0.75982  0.12532  1.0000
  O   O12       1.0  0.46226  0.75989  0.62534  1.0000
  O   O13       1.0  0.96233  0.25974  0.12536  1.0000
  O   O14       1.0  0.96233  0.25986  0.62533  1.0000
  O   O15       1.0  0.96238  0.75977  0.12533  1.0000
  O   O16       1.0  0.96253  0.75982  0.62535  1.0000
  O   O17       1.0  0.21239  0.49125  0.37533  1.0000
  O   O18       1.0  0.21237  0.49127  0.87532  1.0000
  O   O19       1.0  0.21248  0.99136  0.37535  1.0000
  O   O20       1.0  0.21235  0.99145  0.87537  1.0000
  O   O21       1.0  0.71243  0.49138  0.37539  1.0000
  O   O22       1.0  0.71240  0.49137  0.87537  1.0000
  O   O23       1.0  0.71231  0.99124  0.37533  1.0000
  O   O24       1.0  0.71238  0.99128  0.87531  1.0000
  O   O25       1.0  0.28866  0.00984  0.12535  1.0000
  O   O26       1.0  0.28858  0.00967  0.62538  1.0000
  O   O27       1.0  0.28860  0.50980  0.12534  1.0000
  O   O28       1.0  0.28865  0.50981  0.62531  1.0000
  O   O29       1.0  0.78861  0.00992  0.12531  1.0000
  O   O30       1.0  0.78869  0.00965  0.62531  1.0000
  O   O31       1.0  0.78862  0.50974  0.12536  1.0000
  O   O32       1.0  0.78856  0.50985  0.62536  1.0000
  O   O33       1.0  0.39569  0.39536  0.48030  1.0000
  O   O34       1.0  0.39564  0.39541  0.98035  1.0000
  O   O35       1.0  0.39573  0.89542  0.48038  1.0000
  O   O36       1.0  0.39564  0.89540  0.98032  1.0000
  O   O37       1.0  0.89563  0.39532  0.48034  1.0000
  O   O38       1.0  0.89565  0.39533  0.98037  1.0000
  O   O39       1.0  0.89566  0.89533  0.48025  1.0000
  O   O40       1.0  0.89564  0.89538  0.98037  1.0000
  O   O41       1.0  0.10532  0.10576  0.23035  1.0000
  O   O42       1.0  0.10535  0.10578  0.73031  1.0000
  O   O43       1.0  0.10537  0.60582  0.23032  1.0000
  O   O44       1.0  0.10520  0.60565  0.73037  1.0000
  O   O45       1.0  0.60531  0.10577  0.23040  1.0000
  O   O46       1.0  0.60542  0.10579  0.73025  1.0000
  O   O47       1.0  0.60531  0.60573  0.23039  1.0000
  O   O48       1.0  0.60520  0.60572  0.73042  1.0000
  O   O49       1.0  0.10524  0.10573  0.02041  1.0000
  O   O50       1.0  0.10542  0.10584  0.52039  1.0000
  O   O51       1.0  0.10529  0.60570  0.02030  1.0000
  O   O52       1.0  0.10537  0.60579  0.52028  1.0000
  O   O53       1.0  0.60529  0.10580  0.02028  1.0000
  O   O54       1.0  0.60536  0.10571  0.52037  1.0000
  O   O55       1.0  0.60538  0.60580  0.02034  1.0000
  O   O56       1.0  0.60526  0.60570  0.52032  1.0000
  O   O57       1.0  0.39562  0.39535  0.27036  1.0000
  O   O58       1.0  0.39566  0.39542  0.77028  1.0000
  O   O59       1.0  0.39565  0.89538  0.27035  1.0000
  O   O60       1.0  0.39565  0.89539  0.77036  1.0000
  O   O61       1.0  0.89565  0.39534  0.27037  1.0000
  O   O62       1.0  0.89554  0.39526  0.77037  1.0000
  O   O63       1.0  0.89563  0.89539  0.27023  1.0000
  O   O64       1.0  0.89559  0.89527  0.77037  1.0000
  O   O65       1.0  0.35534  0.14539  0.48046  1.0000
  O   O66       1.0  0.35527  0.14544  0.98038  1.0000
  O   O67       1.0  0.35537  0.64536  0.48032  1.0000
  O   O68       1.0  0.35527  0.64536  0.98033  1.0000
  O   O69       1.0  0.85534  0.14527  0.48038  1.0000
  O   O70       1.0  0.85529  0.14542  0.98031  1.0000
  O   O71       1.0  0.85536  0.64538  0.48043  1.0000
  O   O72       1.0  0.85529  0.64537  0.98041  1.0000
  O   O73       1.0  0.14557  0.35580  0.23035  1.0000
  O   O74       1.0  0.14564  0.35573  0.73029  1.0000
  O   O75       1.0  0.14568  0.85579  0.23036  1.0000
  O   O76       1.0  0.14563  0.85571  0.73054  1.0000
  O   O77       1.0  0.64566  0.35577  0.23044  1.0000
  O   O78       1.0  0.64563  0.35578  0.73030  1.0000
  O   O79       1.0  0.64568  0.85575  0.23027  1.0000
  O   O80       1.0  0.64558  0.85574  0.73037  1.0000
  O   O81       1.0  0.14566  0.35568  0.02036  1.0000
  O   O82       1.0  0.14561  0.35579  0.52033  1.0000
  O   O83       1.0  0.14564  0.85572  0.02027  1.0000
  O   O84       1.0  0.14565  0.85580  0.52032  1.0000
  O   O85       1.0  0.64563  0.35583  0.02033  1.0000
  O   O86       1.0  0.64573  0.35571  0.52037  1.0000
  O   O87       1.0  0.64558  0.85583  0.02030  1.0000
  O   O88       1.0  0.64568  0.85571  0.52036  1.0000
  O   O89       1.0  0.35532  0.14540  0.27033  1.0000
  O   O90       1.0  0.35541  0.14529  0.77033  1.0000
  O   O91       1.0  0.35532  0.64538  0.27035  1.0000
  O   O92       1.0  0.35520  0.64540  0.77027  1.0000
  O   O93       1.0  0.85533  0.14536  0.27035  1.0000
  O   O94       1.0  0.85540  0.14529  0.77030  1.0000
  O   O95       1.0  0.85537  0.64536  0.27036  1.0000
  O   O96       1.0  0.85522  0.64543  0.77029  1.0000
