data_image0
_chemical_formula_structural       Sr32Sn16O64
_chemical_formula_sum              "Sr32 Sn16 O64"
_cell_length_a       11.5539
_cell_length_b       11.553
_cell_length_c       12.5349
_cell_angle_alpha    90.0054
_cell_angle_beta     90.0031
_cell_angle_gamma    89.998

_space_group_name_H-M_alt    "P 1"
_space_group_IT_number       1

loop_
  _space_group_symop_operation_xyz
  'x, y, z'

loop_
  _atom_site_type_symbol
  _atom_site_label
  _atom_site_symmetry_multiplicity
  _atom_site_fract_x
  _atom_site_fract_y
  _atom_site_fract_z
  _atom_site_occupancy
  Sr  Sr1       1.0  0.38095  0.13101  0.39736  1.0000
  Sr  Sr2       1.0  0.38080  0.63096  0.39743  1.0000
  Sr  Sr3       1.0  0.88104  0.13109  0.39737  1.0000
  Sr  Sr4       1.0  0.88091  0.63104  0.39740  1.0000
  Sr  Sr5       1.0  0.13094  0.11989  0.60344  1.0000
  Sr  Sr6       1.0  0.13108  0.61999  0.60344  1.0000
  Sr  Sr7       1.0  0.63100  0.11991  0.60335  1.0000
  Sr  Sr8       1.0  0.63105  0.61979  0.60345  1.0000
  Sr  Sr9       1.0  0.36985  0.38113  0.60343  1.0000
  Sr  Sr10      1.0  0.36987  0.88088  0.60353  1.0000
  Sr  Sr11      1.0  0.86970  0.38106  0.60336  1.0000
  Sr  Sr12      1.0  0.86974  0.88112  0.60347  1.0000
  Sr  Sr13      1.0  0.11976  0.36985  0.39746  1.0000
  Sr  Sr14      1.0  0.11985  0.86973  0.39743  1.0000
  Sr  Sr15      1.0  0.61973  0.36990  0.39736  1.0000
  Sr  Sr16      1.0  0.61974  0.86970  0.39741  1.0000
  Sr  Sr17      1.0  0.37012  0.11989  0.10336  1.0000
  Sr  Sr18      1.0  0.36981  0.61990  0.10338  1.0000
  Sr  Sr19      1.0  0.86986  0.11993  0.10337  1.0000
  Sr  Sr20      1.0  0.86984  0.61971  0.10345  1.0000
  Sr  Sr21      1.0  0.11989  0.13122  0.89742  1.0000
  Sr  Sr22      1.0  0.11969  0.63115  0.89739  1.0000
  Sr  Sr23      1.0  0.61991  0.13113  0.89740  1.0000
  Sr  Sr24      1.0  0.61984  0.63116  0.89735  1.0000
  Sr  Sr25      1.0  0.38110  0.36977  0.89736  1.0000
  Sr  Sr26      1.0  0.38103  0.86998  0.89741  1.0000
  Sr  Sr27      1.0  0.88116  0.36999  0.89735  1.0000
  Sr  Sr28      1.0  0.88117  0.86968  0.89745  1.0000
  Sr  Sr29      1.0  0.13120  0.38104  0.10342  1.0000
  Sr  Sr30      1.0  0.13116  0.88121  0.10344  1.0000
  Sr  Sr31      1.0  0.63107  0.38111  0.10337  1.0000
  Sr  Sr32      1.0  0.63126  0.88108  0.10347  1.0000
  Sn  Sn1       1.0  0.37538  0.12536  0.75039  1.0000
  Sn  Sn2       1.0  0.37549  0.62542  0.75044  1.0000
  Sn  Sn3       1.0  0.87541  0.12542  0.75043  1.0000
  Sn  Sn4       1.0  0.87541  0.62544  0.75040  1.0000
  Sn  Sn5       1.0  0.12539  0.12542  0.25039  1.0000
  Sn  Sn6       1.0  0.12544  0.62543  0.25030  1.0000
  Sn  Sn7       1.0  0.62542  0.12546  0.25045  1.0000
  Sn  Sn8       1.0  0.62533  0.62547  0.25033  1.0000
  Sn  Sn9       1.0  0.37537  0.37543  0.25037  1.0000
  Sn  Sn10      1.0  0.37546  0.87547  0.25039  1.0000
  Sn  Sn11      1.0  0.87538  0.37545  0.25037  1.0000
  Sn  Sn12      1.0  0.87548  0.87535  0.25038  1.0000
  Sn  Sn13      1.0  0.12543  0.37549  0.75040  1.0000
  Sn  Sn14      1.0  0.12545  0.87548  0.75037  1.0000
  Sn  Sn15      1.0  0.62548  0.37538  0.75043  1.0000
  Sn  Sn16      1.0  0.62544  0.87542  0.75047  1.0000
  O   O1        1.0  0.35723  0.10734  0.58749  1.0000
  O   O2        1.0  0.35734  0.60755  0.58752  1.0000
  O   O3        1.0  0.85728  0.10743  0.58748  1.0000
  O   O4        1.0  0.85722  0.60752  0.58743  1.0000
  O   O5        1.0  0.10722  0.14359  0.41338  1.0000
  O   O6        1.0  0.10757  0.64354  0.41331  1.0000
  O   O7        1.0  0.60729  0.14363  0.41335  1.0000
  O   O8        1.0  0.60733  0.64343  0.41334  1.0000
  O   O9        1.0  0.39360  0.35763  0.41332  1.0000
  O   O10       1.0  0.39336  0.85740  0.41335  1.0000
  O   O11       1.0  0.89350  0.35764  0.41331  1.0000
  O   O12       1.0  0.89353  0.85725  0.41329  1.0000
  O   O13       1.0  0.14365  0.39345  0.58748  1.0000
  O   O14       1.0  0.14342  0.89342  0.58742  1.0000
  O   O15       1.0  0.64364  0.39317  0.58751  1.0000
  O   O16       1.0  0.64346  0.89338  0.58753  1.0000
  O   O17       1.0  0.39361  0.14350  0.91332  1.0000
  O   O18       1.0  0.39362  0.64352  0.91332  1.0000
  O   O19       1.0  0.89370  0.14364  0.91333  1.0000
  O   O20       1.0  0.89356  0.64336  0.91340  1.0000
  O   O21       1.0  0.14358  0.10747  0.08745  1.0000
  O   O22       1.0  0.14347  0.60746  0.08739  1.0000
  O   O23       1.0  0.64338  0.10757  0.08748  1.0000
  O   O24       1.0  0.64347  0.60747  0.08737  1.0000
  O   O25       1.0  0.35725  0.39326  0.08745  1.0000
  O   O26       1.0  0.35753  0.89375  0.08752  1.0000
  O   O27       1.0  0.85724  0.39352  0.08746  1.0000
  O   O28       1.0  0.85752  0.89330  0.08746  1.0000
  O   O29       1.0  0.10726  0.35754  0.91335  1.0000
  O   O30       1.0  0.10761  0.85753  0.91332  1.0000
  O   O31       1.0  0.60750  0.35745  0.91335  1.0000
  O   O32       1.0  0.60739  0.85764  0.91341  1.0000
  O   O33       1.0  0.00039  0.00049  0.25035  1.0000
  O   O34       1.0  0.00032  0.50055  0.25034  1.0000
  O   O35       1.0  0.50051  0.00045  0.25062  1.0000
  O   O36       1.0  0.50012  0.50073  0.25017  1.0000
  O   O37       1.0  0.25031  0.25034  0.75060  1.0000
  O   O38       1.0  0.25046  0.75045  0.75040  1.0000
  O   O39       1.0  0.75036  0.25032  0.75056  1.0000
  O   O40       1.0  0.75033  0.75031  0.75059  1.0000
  O   O41       1.0  0.25047  0.25032  0.25060  1.0000
  O   O42       1.0  0.25066  0.75023  0.25024  1.0000
  O   O43       1.0  0.75049  0.25038  0.25052  1.0000
  O   O44       1.0  0.75043  0.75036  0.25046  1.0000
  O   O45       1.0  0.00041  0.00045  0.75032  1.0000
  O   O46       1.0  0.00059  0.50060  0.75033  1.0000
  O   O47       1.0  0.50025  0.00025  0.75024  1.0000
  O   O48       1.0  0.50054  0.50038  0.75026  1.0000
  O   O49       1.0  0.25030  0.00057  0.77506  1.0000
  O   O50       1.0  0.25059  0.50039  0.77505  1.0000
  O   O51       1.0  0.75057  0.00024  0.77509  1.0000
  O   O52       1.0  0.75055  0.50036  0.77492  1.0000
  O   O53       1.0  0.00041  0.25046  0.22575  1.0000
  O   O54       1.0  0.00056  0.75051  0.22577  1.0000
  O   O55       1.0  0.50049  0.25058  0.22583  1.0000
  O   O56       1.0  0.50060  0.75070  0.22573  1.0000
  O   O57       1.0  0.00033  0.25056  0.72577  1.0000
  O   O58       1.0  0.00040  0.75046  0.72598  1.0000
  O   O59       1.0  0.50046  0.25034  0.72590  1.0000
  O   O60       1.0  0.50059  0.75029  0.72599  1.0000
  O   O61       1.0  0.25031  0.00035  0.27507  1.0000
  O   O62       1.0  0.25025  0.50027  0.27494  1.0000
  O   O63       1.0  0.75055  0.00049  0.27490  1.0000
  O   O64       1.0  0.75028  0.50033  0.27490  1.0000
