data_image0
_chemical_formula_structural       Ca16Al64O112
_chemical_formula_sum              "Ca16 Al64 O112"
_cell_length_a       10.907
_cell_length_b       14.7977
_cell_length_c       15.6235
_cell_angle_alpha    98.9343
_cell_angle_beta     76.4717
_cell_angle_gamma    82.9067

_space_group_name_H-M_alt    "P 1"
_space_group_IT_number       1

loop_
  _space_group_symop_operation_xyz
  'x, y, z'

loop_
  _atom_site_type_symbol
  _atom_site_label
  _atom_site_symmetry_multiplicity
  _atom_site_fract_x
  _atom_site_fract_y
  _atom_site_fract_z
  _atom_site_occupancy
  Ca  Ca1       1.0  0.12518  0.09738  0.45181  1.0000
  Ca  Ca2       1.0  0.12519  0.09750  0.95185  1.0000
  Ca  Ca3       1.0  0.12536  0.59764  0.70186  1.0000
  Ca  Ca4       1.0  0.12515  0.59739  0.20183  1.0000
  Ca  Ca5       1.0  0.62544  0.09755  0.45189  1.0000
  Ca  Ca6       1.0  0.62538  0.09745  0.95189  1.0000
  Ca  Ca7       1.0  0.62521  0.59743  0.70184  1.0000
  Ca  Ca8       1.0  0.62533  0.59740  0.20180  1.0000
  Ca  Ca9       1.0  0.37531  0.40322  0.29879  1.0000
  Ca  Ca10      1.0  0.37538  0.40340  0.79885  1.0000
  Ca  Ca11      1.0  0.37536  0.90340  0.54892  1.0000
  Ca  Ca12      1.0  0.37522  0.90334  0.04879  1.0000
  Ca  Ca13      1.0  0.87529  0.40337  0.29892  1.0000
  Ca  Ca14      1.0  0.87533  0.40349  0.79885  1.0000
  Ca  Ca15      1.0  0.87534  0.90344  0.54886  1.0000
  Ca  Ca16      1.0  0.87529  0.90335  0.04886  1.0000
  Al  Al1       1.0  0.12809  0.34040  0.45100  1.0000
  Al  Al2       1.0  0.12796  0.34038  0.95097  1.0000
  Al  Al3       1.0  0.12796  0.84042  0.70094  1.0000
  Al  Al4       1.0  0.12811  0.84033  0.20097  1.0000
  Al  Al5       1.0  0.62812  0.34037  0.45095  1.0000
  Al  Al6       1.0  0.62804  0.34034  0.95094  1.0000
  Al  Al7       1.0  0.62796  0.84035  0.70097  1.0000
  Al  Al8       1.0  0.62811  0.84026  0.20095  1.0000
  Al  Al9       1.0  0.12247  0.21972  0.27004  1.0000
  Al  Al10      1.0  0.12235  0.21985  0.77004  1.0000
  Al  Al11      1.0  0.12258  0.71966  0.52000  1.0000
  Al  Al12      1.0  0.12239  0.71976  0.02014  1.0000
  Al  Al13      1.0  0.62243  0.21968  0.27007  1.0000
  Al  Al14      1.0  0.62250  0.21975  0.77001  1.0000
  Al  Al15      1.0  0.62249  0.71976  0.52003  1.0000
  Al  Al16      1.0  0.62238  0.71978  0.02002  1.0000
  Al  Al17      1.0  0.37250  0.16035  0.29969  1.0000
  Al  Al18      1.0  0.37246  0.16047  0.79968  1.0000
  Al  Al19      1.0  0.37253  0.66046  0.54976  1.0000
  Al  Al20      1.0  0.37245  0.66044  0.04982  1.0000
  Al  Al21      1.0  0.87254  0.16036  0.29965  1.0000
  Al  Al22      1.0  0.87244  0.16049  0.79974  1.0000
  Al  Al23      1.0  0.87246  0.66054  0.54977  1.0000
  Al  Al24      1.0  0.87239  0.66053  0.04966  1.0000
  Al  Al25      1.0  0.37816  0.28101  0.48058  1.0000
  Al  Al26      1.0  0.37805  0.28103  0.98056  1.0000
  Al  Al27      1.0  0.37794  0.78108  0.73070  1.0000
  Al  Al28      1.0  0.37803  0.78105  0.23075  1.0000
  Al  Al29      1.0  0.87823  0.28107  0.48053  1.0000
  Al  Al30      1.0  0.87808  0.28108  0.98055  1.0000
  Al  Al31      1.0  0.87792  0.78115  0.73063  1.0000
  Al  Al32      1.0  0.87820  0.78102  0.23055  1.0000
  Al  Al33      1.0  0.09835  0.03883  0.14416  1.0000
  Al  Al34      1.0  0.09833  0.03893  0.64420  1.0000
  Al  Al35      1.0  0.09824  0.53888  0.39428  1.0000
  Al  Al36      1.0  0.09822  0.53894  0.89425  1.0000
  Al  Al37      1.0  0.59824  0.03879  0.14428  1.0000
  Al  Al38      1.0  0.59833  0.03888  0.64427  1.0000
  Al  Al39      1.0  0.59820  0.53890  0.39424  1.0000
  Al  Al40      1.0  0.59823  0.53889  0.89429  1.0000
  Al  Al41      1.0  0.15241  0.37574  0.64949  1.0000
  Al  Al42      1.0  0.15232  0.37566  0.14951  1.0000
  Al  Al43      1.0  0.15227  0.87568  0.89949  1.0000
  Al  Al44      1.0  0.15235  0.87571  0.39956  1.0000
  Al  Al45      1.0  0.65249  0.37570  0.64945  1.0000
  Al  Al46      1.0  0.65237  0.37563  0.14945  1.0000
  Al  Al47      1.0  0.65220  0.87576  0.89953  1.0000
  Al  Al48      1.0  0.65233  0.87574  0.39948  1.0000
  Al  Al49      1.0  0.40241  0.46189  0.60642  1.0000
  Al  Al50      1.0  0.40231  0.46184  0.10634  1.0000
  Al  Al51      1.0  0.40228  0.96196  0.85643  1.0000
  Al  Al52      1.0  0.40235  0.96193  0.35651  1.0000
  Al  Al53      1.0  0.90241  0.46203  0.60642  1.0000
  Al  Al54      1.0  0.90230  0.46194  0.10643  1.0000
  Al  Al55      1.0  0.90232  0.96192  0.85644  1.0000
  Al  Al56      1.0  0.90230  0.96184  0.35642  1.0000
  Al  Al57      1.0  0.34833  0.12508  0.10113  1.0000
  Al  Al58      1.0  0.34830  0.12509  0.60115  1.0000
  Al  Al59      1.0  0.34824  0.62501  0.35112  1.0000
  Al  Al60      1.0  0.34819  0.62517  0.85128  1.0000
  Al  Al61      1.0  0.84825  0.12507  0.10113  1.0000
  Al  Al62      1.0  0.84832  0.12507  0.60114  1.0000
  Al  Al63      1.0  0.84824  0.62510  0.35117  1.0000
  Al  Al64      1.0  0.84819  0.62518  0.85112  1.0000
  O   O1        1.0  0.46004  0.37483  0.50620  1.0000
  O   O2        1.0  0.45997  0.37484  0.00607  1.0000
  O   O3        1.0  0.45995  0.87488  0.75623  1.0000
  O   O4        1.0  0.46012  0.87475  0.25637  1.0000
  O   O5        1.0  0.96001  0.37496  0.50619  1.0000
  O   O6        1.0  0.95993  0.37492  0.00620  1.0000
  O   O7        1.0  0.95995  0.87492  0.75618  1.0000
  O   O8        1.0  0.96006  0.87487  0.25615  1.0000
  O   O9        1.0  0.29052  0.18173  0.21657  1.0000
  O   O10       1.0  0.29039  0.18176  0.71657  1.0000
  O   O11       1.0  0.29061  0.68161  0.46657  1.0000
  O   O12       1.0  0.29046  0.68179  0.96669  1.0000
  O   O13       1.0  0.79048  0.18164  0.21658  1.0000
  O   O14       1.0  0.79047  0.18161  0.71655  1.0000
  O   O15       1.0  0.79058  0.68172  0.46657  1.0000
  O   O16       1.0  0.79048  0.68188  0.96652  1.0000
  O   O17       1.0  0.04055  0.12590  0.24436  1.0000
  O   O18       1.0  0.04045  0.12606  0.74434  1.0000
  O   O19       1.0  0.04049  0.62593  0.49451  1.0000
  O   O20       1.0  0.04047  0.62602  0.99444  1.0000
  O   O21       1.0  0.54055  0.12583  0.24450  1.0000
  O   O22       1.0  0.54047  0.12601  0.74440  1.0000
  O   O23       1.0  0.54053  0.62595  0.49445  1.0000
  O   O24       1.0  0.54049  0.62595  0.99448  1.0000
  O   O25       1.0  0.21009  0.31903  0.53407  1.0000
  O   O26       1.0  0.20996  0.31900  0.03408  1.0000
  O   O27       1.0  0.20989  0.81901  0.78407  1.0000
  O   O28       1.0  0.21002  0.81912  0.28413  1.0000
  O   O29       1.0  0.71013  0.31901  0.53405  1.0000
  O   O30       1.0  0.71000  0.31897  0.03405  1.0000
  O   O31       1.0  0.70991  0.81908  0.78413  1.0000
  O   O32       1.0  0.71015  0.81913  0.28406  1.0000
  O   O33       1.0  0.17529  0.43228  0.40320  1.0000
  O   O34       1.0  0.17510  0.43226  0.90315  1.0000
  O   O35       1.0  0.17519  0.93234  0.65323  1.0000
  O   O36       1.0  0.17519  0.93216  0.15305  1.0000
  O   O37       1.0  0.67519  0.43234  0.40328  1.0000
  O   O38       1.0  0.67518  0.43226  0.90321  1.0000
  O   O39       1.0  0.67514  0.93227  0.65324  1.0000
  O   O40       1.0  0.67511  0.93212  0.15306  1.0000
  O   O41       1.0  0.07539  0.31344  0.22500  1.0000
  O   O42       1.0  0.07540  0.31360  0.72503  1.0000
  O   O43       1.0  0.07547  0.81339  0.47496  1.0000
  O   O44       1.0  0.07538  0.81347  0.97504  1.0000
  O   O45       1.0  0.57548  0.31338  0.22496  1.0000
  O   O46       1.0  0.57560  0.31348  0.72496  1.0000
  O   O47       1.0  0.57545  0.81343  0.47490  1.0000
  O   O48       1.0  0.57522  0.81346  0.97496  1.0000
  O   O49       1.0  0.32529  0.06844  0.34741  1.0000
  O   O50       1.0  0.32539  0.06866  0.84762  1.0000
  O   O51       1.0  0.32551  0.56856  0.59761  1.0000
  O   O52       1.0  0.32538  0.56846  0.09747  1.0000
  O   O53       1.0  0.82548  0.06852  0.34753  1.0000
  O   O54       1.0  0.82551  0.06862  0.84763  1.0000
  O   O55       1.0  0.82548  0.56866  0.59764  1.0000
  O   O56       1.0  0.82551  0.56863  0.09758  1.0000
  O   O57       1.0  0.42518  0.18731  0.52565  1.0000
  O   O58       1.0  0.42522  0.18740  0.02568  1.0000
  O   O59       1.0  0.42511  0.68742  0.77578  1.0000
  O   O60       1.0  0.42521  0.68727  0.27568  1.0000
  O   O61       1.0  0.92522  0.18743  0.52573  1.0000
  O   O62       1.0  0.92506  0.18738  0.02566  1.0000
  O   O63       1.0  0.92509  0.68738  0.77561  1.0000
  O   O64       1.0  0.92512  0.68733  0.27566  1.0000
  O   O65       1.0  0.46572  0.03163  0.10018  1.0000
  O   O66       1.0  0.46575  0.03168  0.60024  1.0000
  O   O67       1.0  0.46575  0.53153  0.35010  1.0000
  O   O68       1.0  0.46568  0.53171  0.85021  1.0000
  O   O69       1.0  0.96585  0.03166  0.10002  1.0000
  O   O70       1.0  0.96593  0.03164  0.60001  1.0000
  O   O71       1.0  0.96565  0.53163  0.35019  1.0000
  O   O72       1.0  0.96566  0.53177  0.85019  1.0000
  O   O73       1.0  0.28507  0.41604  0.67695  1.0000
  O   O74       1.0  0.28489  0.41611  0.17696  1.0000
  O   O75       1.0  0.28489  0.91610  0.92690  1.0000
  O   O76       1.0  0.28489  0.91616  0.42703  1.0000
  O   O77       1.0  0.78496  0.41626  0.67699  1.0000
  O   O78       1.0  0.78482  0.41619  0.17699  1.0000
  O   O79       1.0  0.78479  0.91622  0.92698  1.0000
  O   O80       1.0  0.78494  0.91608  0.42698  1.0000
  O   O81       1.0  0.37532  0.26608  0.36740  1.0000
  O   O82       1.0  0.37522  0.26623  0.86739  1.0000
  O   O83       1.0  0.37543  0.76621  0.61746  1.0000
  O   O84       1.0  0.37534  0.76615  0.11755  1.0000
  O   O85       1.0  0.87527  0.26612  0.36739  1.0000
  O   O86       1.0  0.87528  0.26626  0.86738  1.0000
  O   O87       1.0  0.87530  0.76634  0.61744  1.0000
  O   O88       1.0  0.87542  0.76623  0.11739  1.0000
  O   O89       1.0  0.12508  0.23466  0.38327  1.0000
  O   O90       1.0  0.12502  0.23466  0.88326  1.0000
  O   O91       1.0  0.12545  0.73465  0.63315  1.0000
  O   O92       1.0  0.12522  0.73456  0.13332  1.0000
  O   O93       1.0  0.62524  0.23462  0.38322  1.0000
  O   O94       1.0  0.62534  0.23458  0.88319  1.0000
  O   O95       1.0  0.62553  0.73460  0.63319  1.0000
  O   O96       1.0  0.62548  0.73456  0.13313  1.0000
  O   O97       1.0  0.21582  0.08458  0.07362  1.0000
  O   O98       1.0  0.21587  0.08453  0.57355  1.0000
  O   O99       1.0  0.21556  0.58475  0.32373  1.0000
  O   O100      1.0  0.21568  0.58471  0.82370  1.0000
  O   O101      1.0  0.71572  0.08452  0.07371  1.0000
  O   O102      1.0  0.71585  0.08451  0.57365  1.0000
  O   O103      1.0  0.71567  0.58464  0.32368  1.0000
  O   O104      1.0  0.71564  0.58463  0.82372  1.0000
  O   O105      1.0  0.03504  0.46924  0.65046  1.0000
  O   O106      1.0  0.03486  0.46913  0.15051  1.0000
  O   O107      1.0  0.03494  0.96916  0.90046  1.0000
  O   O108      1.0  0.03480  0.96910  0.40055  1.0000
  O   O109      1.0  0.53500  0.46912  0.65046  1.0000
  O   O110      1.0  0.53489  0.46907  0.15039  1.0000
  O   O111      1.0  0.53479  0.96923  0.90054  1.0000
  O   O112      1.0  0.53492  0.96927  0.40055  1.0000
