data_image0
_chemical_formula_structural       Li48Zr24O72
_chemical_formula_sum              "Li48 Zr24 O72"
_cell_length_a       10.5068
_cell_length_b       13.5155
_cell_length_c       10.7759
_cell_angle_alpha    84.0119
_cell_angle_beta     100.915
_cell_angle_gamma    104.279

_space_group_name_H-M_alt    "P 1"
_space_group_IT_number       1

loop_
  _space_group_symop_operation_xyz
  'x, y, z'

loop_
  _atom_site_type_symbol
  _atom_site_label
  _atom_site_symmetry_multiplicity
  _atom_site_fract_x
  _atom_site_fract_y
  _atom_site_fract_z
  _atom_site_occupancy
  Li  Li1       1.0  0.32812  0.08655  0.08239  1.0000
  Li  Li2       1.0  0.32816  0.08658  0.58212  1.0000
  Li  Li3       1.0  0.82827  0.08651  0.08223  1.0000
  Li  Li4       1.0  0.82831  0.08663  0.58246  1.0000
  Li  Li5       1.0  0.66141  0.41982  0.41571  1.0000
  Li  Li6       1.0  0.66171  0.41994  0.91563  1.0000
  Li  Li7       1.0  0.49487  0.75332  0.24901  1.0000
  Li  Li8       1.0  0.49482  0.75327  0.74902  1.0000
  Li  Li9       1.0  0.16154  0.41989  0.41578  1.0000
  Li  Li10      1.0  0.16145  0.41995  0.91562  1.0000
  Li  Li11      1.0  0.99484  0.75329  0.24907  1.0000
  Li  Li12      1.0  0.99493  0.75321  0.74885  1.0000
  Li  Li13      1.0  0.00654  0.24735  0.25187  1.0000
  Li  Li14      1.0  0.00663  0.24739  0.75182  1.0000
  Li  Li15      1.0  0.50649  0.24746  0.25177  1.0000
  Li  Li16      1.0  0.50661  0.24740  0.75193  1.0000
  Li  Li17      1.0  0.34005  0.58079  0.58524  1.0000
  Li  Li18      1.0  0.33987  0.58074  0.08529  1.0000
  Li  Li19      1.0  0.17328  0.91402  0.41870  1.0000
  Li  Li20      1.0  0.17330  0.91417  0.91867  1.0000
  Li  Li21      1.0  0.83981  0.58068  0.58519  1.0000
  Li  Li22      1.0  0.83984  0.58068  0.08522  1.0000
  Li  Li23      1.0  0.67336  0.91415  0.41855  1.0000
  Li  Li24      1.0  0.67320  0.91402  0.91856  1.0000
  Li  Li25      1.0  0.11735  0.19215  0.02944  1.0000
  Li  Li26      1.0  0.11721  0.19211  0.52964  1.0000
  Li  Li27      1.0  0.61717  0.19201  0.02985  1.0000
  Li  Li28      1.0  0.61719  0.19201  0.52986  1.0000
  Li  Li29      1.0  0.45049  0.52532  0.36319  1.0000
  Li  Li30      1.0  0.45050  0.52533  0.86318  1.0000
  Li  Li31      1.0  0.28383  0.85868  0.19638  1.0000
  Li  Li32      1.0  0.28385  0.85871  0.69658  1.0000
  Li  Li33      1.0  0.95067  0.52552  0.36283  1.0000
  Li  Li34      1.0  0.95050  0.52540  0.86313  1.0000
  Li  Li35      1.0  0.78383  0.85876  0.19637  1.0000
  Li  Li36      1.0  0.78405  0.85887  0.69596  1.0000
  Li  Li37      1.0  0.21752  0.14191  0.30459  1.0000
  Li  Li38      1.0  0.21765  0.14196  0.80458  1.0000
  Li  Li39      1.0  0.71756  0.14197  0.30477  1.0000
  Li  Li40      1.0  0.71763  0.14198  0.80465  1.0000
  Li  Li41      1.0  0.55085  0.47524  0.63800  1.0000
  Li  Li42      1.0  0.55086  0.47525  0.13811  1.0000
  Li  Li43      1.0  0.38412  0.80845  0.47164  1.0000
  Li  Li44      1.0  0.38408  0.80855  0.97148  1.0000
  Li  Li45      1.0  0.05095  0.47533  0.63786  1.0000
  Li  Li46      1.0  0.05079  0.47519  0.13818  1.0000
  Li  Li47      1.0  0.88441  0.80871  0.47109  1.0000
  Li  Li48      1.0  0.88426  0.80867  0.97129  1.0000
  Zr  Zr1       1.0  0.89516  0.30309  0.97417  1.0000
  Zr  Zr2       1.0  0.89517  0.30314  0.47410  1.0000
  Zr  Zr3       1.0  0.39523  0.30307  0.97407  1.0000
  Zr  Zr4       1.0  0.39520  0.30308  0.47410  1.0000
  Zr  Zr5       1.0  0.22857  0.63646  0.30744  1.0000
  Zr  Zr6       1.0  0.22848  0.63643  0.80741  1.0000
  Zr  Zr7       1.0  0.06181  0.96974  0.14085  1.0000
  Zr  Zr8       1.0  0.06189  0.96973  0.64080  1.0000
  Zr  Zr9       1.0  0.72848  0.63647  0.30732  1.0000
  Zr  Zr10      1.0  0.72850  0.63650  0.80737  1.0000
  Zr  Zr11      1.0  0.56190  0.96977  0.14075  1.0000
  Zr  Zr12      1.0  0.56189  0.96977  0.64067  1.0000
  Zr  Zr13      1.0  0.43965  0.03090  0.36013  1.0000
  Zr  Zr14      1.0  0.43966  0.03092  0.86017  1.0000
  Zr  Zr15      1.0  0.93958  0.03095  0.36028  1.0000
  Zr  Zr16      1.0  0.93960  0.03083  0.86021  1.0000
  Zr  Zr17      1.0  0.77300  0.36423  0.69361  1.0000
  Zr  Zr18      1.0  0.77294  0.36426  0.19358  1.0000
  Zr  Zr19      1.0  0.60639  0.69758  0.52682  1.0000
  Zr  Zr20      1.0  0.60632  0.69760  0.02680  1.0000
  Zr  Zr21      1.0  0.27300  0.36428  0.69356  1.0000
  Zr  Zr22      1.0  0.27296  0.36427  0.19348  1.0000
  Zr  Zr23      1.0  0.10627  0.69754  0.52685  1.0000
  Zr  Zr24      1.0  0.10627  0.69757  0.02684  1.0000
  O   O1        1.0  0.91744  0.16700  0.91719  1.0000
  O   O2        1.0  0.91743  0.16702  0.41721  1.0000
  O   O3        1.0  0.41743  0.16703  0.91702  1.0000
  O   O4        1.0  0.41715  0.16695  0.41708  1.0000
  O   O5        1.0  0.25077  0.50035  0.25044  1.0000
  O   O6        1.0  0.25073  0.50031  0.75058  1.0000
  O   O7        1.0  0.08399  0.83368  0.08384  1.0000
  O   O8        1.0  0.08407  0.83367  0.58377  1.0000
  O   O9        1.0  0.75065  0.50037  0.25039  1.0000
  O   O10       1.0  0.75058  0.50027  0.75050  1.0000
  O   O11       1.0  0.58410  0.83370  0.08378  1.0000
  O   O12       1.0  0.58416  0.83373  0.58368  1.0000
  O   O13       1.0  0.20648  0.28184  0.35405  1.0000
  O   O14       1.0  0.20640  0.28181  0.85405  1.0000
  O   O15       1.0  0.70640  0.28184  0.35407  1.0000
  O   O16       1.0  0.70645  0.28179  0.85404  1.0000
  O   O17       1.0  0.53988  0.61519  0.68725  1.0000
  O   O18       1.0  0.53968  0.61517  0.18728  1.0000
  O   O19       1.0  0.37312  0.94851  0.52060  1.0000
  O   O20       1.0  0.37309  0.94849  0.02070  1.0000
  O   O21       1.0  0.03973  0.61518  0.68733  1.0000
  O   O22       1.0  0.03977  0.61511  0.18737  1.0000
  O   O23       1.0  0.87310  0.94850  0.52077  1.0000
  O   O24       1.0  0.87298  0.94842  0.02072  1.0000
  O   O25       1.0  0.30747  0.23128  0.12928  1.0000
  O   O26       1.0  0.30759  0.23134  0.62938  1.0000
  O   O27       1.0  0.80746  0.23132  0.12935  1.0000
  O   O28       1.0  0.80746  0.23126  0.62930  1.0000
  O   O29       1.0  0.64087  0.56467  0.46259  1.0000
  O   O30       1.0  0.64085  0.56463  0.96262  1.0000
  O   O31       1.0  0.47419  0.89797  0.29594  1.0000
  O   O32       1.0  0.47416  0.89791  0.79588  1.0000
  O   O33       1.0  0.14086  0.56462  0.46265  1.0000
  O   O34       1.0  0.14071  0.56464  0.96257  1.0000
  O   O35       1.0  0.97403  0.89797  0.29603  1.0000
  O   O36       1.0  0.97407  0.89792  0.79595  1.0000
  O   O37       1.0  0.12831  0.05214  0.98034  1.0000
  O   O38       1.0  0.12837  0.05221  0.48033  1.0000
  O   O39       1.0  0.62840  0.05225  0.98029  1.0000
  O   O40       1.0  0.62846  0.05223  0.48016  1.0000
  O   O41       1.0  0.46181  0.38553  0.31356  1.0000
  O   O42       1.0  0.46179  0.38558  0.81367  1.0000
  O   O43       1.0  0.29500  0.71889  0.14694  1.0000
  O   O44       1.0  0.29516  0.71889  0.64686  1.0000
  O   O45       1.0  0.96175  0.38549  0.31355  1.0000
  O   O46       1.0  0.96171  0.38559  0.81368  1.0000
  O   O47       1.0  0.79504  0.71893  0.14693  1.0000
  O   O48       1.0  0.79516  0.71891  0.64692  1.0000
  O   O49       1.0  0.02731  0.10274  0.20504  1.0000
  O   O50       1.0  0.02746  0.10275  0.70508  1.0000
  O   O51       1.0  0.52743  0.10278  0.20500  1.0000
  O   O52       1.0  0.52729  0.10268  0.70485  1.0000
  O   O53       1.0  0.36080  0.43611  0.53836  1.0000
  O   O54       1.0  0.36069  0.43606  0.03827  1.0000
  O   O55       1.0  0.19403  0.76942  0.37167  1.0000
  O   O56       1.0  0.19394  0.76939  0.87162  1.0000
  O   O57       1.0  0.86073  0.43609  0.53835  1.0000
  O   O58       1.0  0.86064  0.43607  0.03840  1.0000
  O   O59       1.0  0.69404  0.76945  0.37154  1.0000
  O   O60       1.0  0.69408  0.76943  0.87162  1.0000
  O   O61       1.0  0.25076  0.00034  0.25037  1.0000
  O   O62       1.0  0.25072  0.00036  0.75048  1.0000
  O   O63       1.0  0.75070  0.00030  0.25052  1.0000
  O   O64       1.0  0.75078  0.00036  0.75043  1.0000
  O   O65       1.0  0.58407  0.33370  0.58385  1.0000
  O   O66       1.0  0.58409  0.33362  0.08388  1.0000
  O   O67       1.0  0.41743  0.66699  0.41715  1.0000
  O   O68       1.0  0.41739  0.66710  0.91714  1.0000
  O   O69       1.0  0.08412  0.33377  0.58381  1.0000
  O   O70       1.0  0.08410  0.33376  0.08385  1.0000
  O   O71       1.0  0.91741  0.66705  0.41705  1.0000
  O   O72       1.0  0.91736  0.66697  0.91714  1.0000
