data_image0
_chemical_formula_structural       Hf24Si24O96
_chemical_formula_sum              "Hf24 Si24 O96"
_cell_length_a       10.7735
_cell_length_b       13.6935
_cell_length_c       11.0197
_cell_angle_alpha    94.0796
_cell_angle_beta     77.8506
_cell_angle_gamma    104.718

_space_group_name_H-M_alt    "P 1"
_space_group_IT_number       1

loop_
  _space_group_symop_operation_xyz
  'x, y, z'

loop_
  _atom_site_type_symbol
  _atom_site_label
  _atom_site_symmetry_multiplicity
  _atom_site_fract_x
  _atom_site_fract_y
  _atom_site_fract_z
  _atom_site_occupancy
  Hf  Hf1       1.0  0.91715  0.29204  0.02128  1.0000
  Hf  Hf2       1.0  0.91717  0.29203  0.52126  1.0000
  Hf  Hf3       1.0  0.41709  0.29205  0.27135  1.0000
  Hf  Hf4       1.0  0.41719  0.29210  0.77128  1.0000
  Hf  Hf5       1.0  0.25054  0.62550  0.18799  1.0000
  Hf  Hf6       1.0  0.25051  0.62535  0.68792  1.0000
  Hf  Hf7       1.0  0.08381  0.95872  0.10469  1.0000
  Hf  Hf8       1.0  0.08381  0.95871  0.60474  1.0000
  Hf  Hf9       1.0  0.75054  0.62531  0.43795  1.0000
  Hf  Hf10      1.0  0.75047  0.62532  0.93794  1.0000
  Hf  Hf11      1.0  0.58380  0.95866  0.35471  1.0000
  Hf  Hf12      1.0  0.58389  0.95870  0.85467  1.0000
  Hf  Hf13      1.0  0.41719  0.04209  0.14635  1.0000
  Hf  Hf14      1.0  0.41715  0.04204  0.64633  1.0000
  Hf  Hf15      1.0  0.91708  0.04196  0.39630  1.0000
  Hf  Hf16      1.0  0.91717  0.04203  0.89638  1.0000
  Hf  Hf17      1.0  0.75053  0.37536  0.31290  1.0000
  Hf  Hf18      1.0  0.75045  0.37535  0.81285  1.0000
  Hf  Hf19      1.0  0.58381  0.70864  0.22961  1.0000
  Hf  Hf20      1.0  0.58380  0.70866  0.72963  1.0000
  Hf  Hf21      1.0  0.25048  0.37543  0.56299  1.0000
  Hf  Hf22      1.0  0.25046  0.37543  0.06294  1.0000
  Hf  Hf23      1.0  0.08381  0.70875  0.47963  1.0000
  Hf  Hf24      1.0  0.08383  0.70870  0.97964  1.0000
  Si  Si1       1.0  0.08375  0.20871  0.22964  1.0000
  Si  Si2       1.0  0.08383  0.20871  0.72963  1.0000
  Si  Si3       1.0  0.58384  0.20874  0.47965  1.0000
  Si  Si4       1.0  0.58387  0.20872  0.97959  1.0000
  Si  Si5       1.0  0.41720  0.54203  0.39626  1.0000
  Si  Si6       1.0  0.41716  0.54210  0.89626  1.0000
  Si  Si7       1.0  0.25054  0.87550  0.31312  1.0000
  Si  Si8       1.0  0.25053  0.87534  0.81298  1.0000
  Si  Si9       1.0  0.91725  0.54205  0.64633  1.0000
  Si  Si10      1.0  0.91720  0.54202  0.14629  1.0000
  Si  Si11      1.0  0.75052  0.87531  0.56304  1.0000
  Si  Si12      1.0  0.75046  0.87534  0.06306  1.0000
  Si  Si13      1.0  0.25056  0.12538  0.93802  1.0000
  Si  Si14      1.0  0.25042  0.12544  0.43803  1.0000
  Si  Si15      1.0  0.75051  0.12534  0.18798  1.0000
  Si  Si16      1.0  0.75051  0.12532  0.68791  1.0000
  Si  Si17      1.0  0.58372  0.45864  0.10452  1.0000
  Si  Si18      1.0  0.58384  0.45870  0.60449  1.0000
  Si  Si19      1.0  0.41718  0.79211  0.02135  1.0000
  Si  Si20      1.0  0.41716  0.79202  0.52129  1.0000
  Si  Si21      1.0  0.08393  0.45877  0.35455  1.0000
  Si  Si22      1.0  0.08374  0.45871  0.85458  1.0000
  Si  Si23      1.0  0.91711  0.79195  0.27125  1.0000
  Si  Si24      1.0  0.91715  0.79203  0.77133  1.0000
  O   O1        1.0  0.34177  0.12385  0.80046  1.0000
  O   O2        1.0  0.34177  0.12399  0.30048  1.0000
  O   O3        1.0  0.84171  0.12389  0.05038  1.0000
  O   O4        1.0  0.84177  0.12378  0.55037  1.0000
  O   O5        1.0  0.67481  0.45711  0.96690  1.0000
  O   O6        1.0  0.67523  0.45724  0.46701  1.0000
  O   O7        1.0  0.50848  0.79050  0.88384  1.0000
  O   O8        1.0  0.50834  0.79052  0.38371  1.0000
  O   O9        1.0  0.17516  0.45731  0.21696  1.0000
  O   O10       1.0  0.17501  0.45722  0.71703  1.0000
  O   O11       1.0  0.00827  0.79051  0.13365  1.0000
  O   O12       1.0  0.00836  0.79054  0.63375  1.0000
  O   O13       1.0  0.23678  0.26899  0.21574  1.0000
  O   O14       1.0  0.23684  0.26905  0.71582  1.0000
  O   O15       1.0  0.73692  0.26898  0.46560  1.0000
  O   O16       1.0  0.73687  0.26905  0.96571  1.0000
  O   O17       1.0  0.57023  0.60228  0.38238  1.0000
  O   O18       1.0  0.57023  0.60233  0.88220  1.0000
  O   O19       1.0  0.40352  0.93585  0.29926  1.0000
  O   O20       1.0  0.40358  0.93560  0.79906  1.0000
  O   O21       1.0  0.07029  0.60234  0.63234  1.0000
  O   O22       1.0  0.07020  0.60241  0.13240  1.0000
  O   O23       1.0  0.90356  0.93559  0.54901  1.0000
  O   O24       1.0  0.90348  0.93572  0.04916  1.0000
  O   O25       1.0  0.05143  0.26908  0.12298  1.0000
  O   O26       1.0  0.05135  0.26899  0.62296  1.0000
  O   O27       1.0  0.55134  0.26919  0.37315  1.0000
  O   O28       1.0  0.55151  0.26904  0.87286  1.0000
  O   O29       1.0  0.38484  0.60238  0.28957  1.0000
  O   O30       1.0  0.38469  0.60235  0.78958  1.0000
  O   O31       1.0  0.21805  0.93575  0.20642  1.0000
  O   O32       1.0  0.21808  0.93567  0.70633  1.0000
  O   O33       1.0  0.88480  0.60243  0.53974  1.0000
  O   O34       1.0  0.88454  0.60234  0.03978  1.0000
  O   O35       1.0  0.71796  0.93559  0.45642  1.0000
  O   O36       1.0  0.71810  0.93570  0.95638  1.0000
  O   O37       1.0  0.28000  0.24750  0.95502  1.0000
  O   O38       1.0  0.27966  0.24758  0.45496  1.0000
  O   O39       1.0  0.77993  0.24746  0.20507  1.0000
  O   O40       1.0  0.77976  0.24747  0.70482  1.0000
  O   O41       1.0  0.61305  0.58078  0.12144  1.0000
  O   O42       1.0  0.61310  0.58080  0.62148  1.0000
  O   O43       1.0  0.44657  0.91423  0.03835  1.0000
  O   O44       1.0  0.44650  0.91415  0.53830  1.0000
  O   O45       1.0  0.11341  0.58091  0.37158  1.0000
  O   O46       1.0  0.11306  0.58083  0.87162  1.0000
  O   O47       1.0  0.94646  0.91406  0.28825  1.0000
  O   O48       1.0  0.94657  0.91418  0.78834  1.0000
  O   O49       1.0  0.09746  0.06513  0.95206  1.0000
  O   O50       1.0  0.09745  0.06501  0.45182  1.0000
  O   O51       1.0  0.59749  0.06508  0.20183  1.0000
  O   O52       1.0  0.59752  0.06485  0.70177  1.0000
  O   O53       1.0  0.43065  0.39840  0.11860  1.0000
  O   O54       1.0  0.43086  0.39829  0.61834  1.0000
  O   O55       1.0  0.26412  0.73185  0.03532  1.0000
  O   O56       1.0  0.26416  0.73166  0.53520  1.0000
  O   O57       1.0  0.93093  0.39843  0.36835  1.0000
  O   O58       1.0  0.93075  0.39837  0.86847  1.0000
  O   O59       1.0  0.76407  0.73163  0.28525  1.0000
  O   O60       1.0  0.76415  0.73167  0.78522  1.0000
  O   O61       1.0  0.99250  0.21022  0.36720  1.0000
  O   O62       1.0  0.99268  0.21023  0.86722  1.0000
  O   O63       1.0  0.49280  0.21023  0.61732  1.0000
  O   O64       1.0  0.49257  0.21020  0.11714  1.0000
  O   O65       1.0  0.32593  0.54356  0.53381  1.0000
  O   O66       1.0  0.32594  0.54372  0.03379  1.0000
  O   O67       1.0  0.15937  0.87696  0.45071  1.0000
  O   O68       1.0  0.15925  0.87690  0.95054  1.0000
  O   O69       1.0  0.82608  0.54352  0.78394  1.0000
  O   O70       1.0  0.82608  0.54345  0.28392  1.0000
  O   O71       1.0  0.65939  0.87681  0.70067  1.0000
  O   O72       1.0  0.65906  0.87679  0.20052  1.0000
  O   O73       1.0  0.05420  0.08657  0.21270  1.0000
  O   O74       1.0  0.05439  0.08657  0.71267  1.0000
  O   O75       1.0  0.55437  0.08661  0.46265  1.0000
  O   O76       1.0  0.55454  0.08660  0.96261  1.0000
  O   O77       1.0  0.38779  0.41991  0.37927  1.0000
  O   O78       1.0  0.38782  0.41998  0.87929  1.0000
  O   O79       1.0  0.22115  0.75337  0.29605  1.0000
  O   O80       1.0  0.22111  0.75322  0.79600  1.0000
  O   O81       1.0  0.88776  0.41994  0.62922  1.0000
  O   O82       1.0  0.88778  0.41990  0.12917  1.0000
  O   O83       1.0  0.72116  0.75321  0.54604  1.0000
  O   O84       1.0  0.72117  0.75322  0.04604  1.0000
  O   O85       1.0  0.28297  0.06507  0.04469  1.0000
  O   O86       1.0  0.28283  0.06527  0.54486  1.0000
  O   O87       1.0  0.78284  0.06492  0.29461  1.0000
  O   O88       1.0  0.78293  0.06512  0.79471  1.0000
  O   O89       1.0  0.61628  0.39840  0.21115  1.0000
  O   O90       1.0  0.61629  0.39841  0.71114  1.0000
  O   O91       1.0  0.44949  0.73179  0.12807  1.0000
  O   O92       1.0  0.44959  0.73168  0.62791  1.0000
  O   O93       1.0  0.11628  0.39847  0.46128  1.0000
  O   O94       1.0  0.11621  0.39839  0.96121  1.0000
  O   O95       1.0  0.94966  0.73162  0.37781  1.0000
  O   O96       1.0  0.94960  0.73177  0.87802  1.0000
