data_image0
_chemical_formula_structural       Ca32Zr32O96
_chemical_formula_sum              "Ca32 Zr32 O96"
_cell_length_a       11.1714
_cell_length_b       11.5526
_cell_length_c       16.0349
_cell_angle_alpha    90.0002
_cell_angle_beta     90.0003
_cell_angle_gamma    89.9978

_space_group_name_H-M_alt    "P 1"
_space_group_IT_number       1

loop_
  _space_group_symop_operation_xyz
  'x, y, z'

loop_
  _atom_site_type_symbol
  _atom_site_label
  _atom_site_symmetry_multiplicity
  _atom_site_fract_x
  _atom_site_fract_y
  _atom_site_fract_z
  _atom_site_occupancy
  Ca  Ca1       1.0  0.00709  0.47452  0.12533  1.0000
  Ca  Ca2       1.0  0.00735  0.47454  0.62537  1.0000
  Ca  Ca3       1.0  0.00723  0.97463  0.12520  1.0000
  Ca  Ca4       1.0  0.00727  0.97460  0.62527  1.0000
  Ca  Ca5       1.0  0.50726  0.47457  0.12526  1.0000
  Ca  Ca6       1.0  0.50729  0.47466  0.62536  1.0000
  Ca  Ca7       1.0  0.50719  0.97457  0.12541  1.0000
  Ca  Ca8       1.0  0.50723  0.97477  0.62541  1.0000
  Ca  Ca9       1.0  0.25729  0.27624  0.37533  1.0000
  Ca  Ca10      1.0  0.25727  0.27621  0.87542  1.0000
  Ca  Ca11      1.0  0.25726  0.77619  0.37547  1.0000
  Ca  Ca12      1.0  0.25722  0.77615  0.87534  1.0000
  Ca  Ca13      1.0  0.75714  0.27604  0.37528  1.0000
  Ca  Ca14      1.0  0.75705  0.27612  0.87530  1.0000
  Ca  Ca15      1.0  0.75719  0.77632  0.37522  1.0000
  Ca  Ca16      1.0  0.75723  0.77600  0.87522  1.0000
  Ca  Ca17      1.0  0.24361  0.22452  0.12521  1.0000
  Ca  Ca18      1.0  0.24361  0.22469  0.62518  1.0000
  Ca  Ca19      1.0  0.24379  0.72466  0.12546  1.0000
  Ca  Ca20      1.0  0.24354  0.72440  0.62547  1.0000
  Ca  Ca21      1.0  0.74369  0.22454  0.12532  1.0000
  Ca  Ca22      1.0  0.74357  0.22464  0.62536  1.0000
  Ca  Ca23      1.0  0.74360  0.72455  0.12529  1.0000
  Ca  Ca24      1.0  0.74371  0.72466  0.62540  1.0000
  Ca  Ca25      1.0  0.49371  0.02624  0.37538  1.0000
  Ca  Ca26      1.0  0.49366  0.02603  0.87537  1.0000
  Ca  Ca27      1.0  0.49367  0.52621  0.37534  1.0000
  Ca  Ca28      1.0  0.49361  0.52620  0.87536  1.0000
  Ca  Ca29      1.0  0.99343  0.02630  0.37533  1.0000
  Ca  Ca30      1.0  0.99376  0.02618  0.87535  1.0000
  Ca  Ca31      1.0  0.99364  0.52623  0.37526  1.0000
  Ca  Ca32      1.0  0.99351  0.52612  0.87538  1.0000
  Zr  Zr1       1.0  0.00041  0.25040  0.00029  1.0000
  Zr  Zr2       1.0  0.00039  0.25046  0.50032  1.0000
  Zr  Zr3       1.0  0.00047  0.75034  0.00035  1.0000
  Zr  Zr4       1.0  0.00052  0.75043  0.50030  1.0000
  Zr  Zr5       1.0  0.50041  0.25029  0.00033  1.0000
  Zr  Zr6       1.0  0.50042  0.25048  0.50033  1.0000
  Zr  Zr7       1.0  0.50050  0.75040  0.00029  1.0000
  Zr  Zr8       1.0  0.50045  0.75048  0.50037  1.0000
  Zr  Zr9       1.0  0.25050  0.00035  0.00033  1.0000
  Zr  Zr10      1.0  0.25043  0.00040  0.50035  1.0000
  Zr  Zr11      1.0  0.25044  0.50044  0.00038  1.0000
  Zr  Zr12      1.0  0.25043  0.50042  0.50030  1.0000
  Zr  Zr13      1.0  0.75045  0.00033  0.00025  1.0000
  Zr  Zr14      1.0  0.75047  0.00047  0.50034  1.0000
  Zr  Zr15      1.0  0.75045  0.50031  0.00033  1.0000
  Zr  Zr16      1.0  0.75051  0.50049  0.50030  1.0000
  Zr  Zr17      1.0  0.25038  0.00039  0.25038  1.0000
  Zr  Zr18      1.0  0.25044  0.00044  0.75032  1.0000
  Zr  Zr19      1.0  0.25043  0.50038  0.25030  1.0000
  Zr  Zr20      1.0  0.25045  0.50030  0.75037  1.0000
  Zr  Zr21      1.0  0.75046  0.00037  0.25025  1.0000
  Zr  Zr22      1.0  0.75051  0.00039  0.75029  1.0000
  Zr  Zr23      1.0  0.75037  0.50036  0.25033  1.0000
  Zr  Zr24      1.0  0.75048  0.50036  0.75029  1.0000
  Zr  Zr25      1.0  0.00052  0.25034  0.25030  1.0000
  Zr  Zr26      1.0  0.00043  0.25039  0.75031  1.0000
  Zr  Zr27      1.0  0.00045  0.75041  0.25030  1.0000
  Zr  Zr28      1.0  0.00050  0.75041  0.75029  1.0000
  Zr  Zr29      1.0  0.50036  0.25039  0.25030  1.0000
  Zr  Zr30      1.0  0.50038  0.25036  0.75034  1.0000
  Zr  Zr31      1.0  0.50039  0.75042  0.25034  1.0000
  Zr  Zr32      1.0  0.50041  0.75043  0.75030  1.0000
  O   O1        1.0  0.15167  0.35052  0.22202  1.0000
  O   O2        1.0  0.15153  0.35072  0.72196  1.0000
  O   O3        1.0  0.15159  0.85057  0.22201  1.0000
  O   O4        1.0  0.15160  0.85066  0.72206  1.0000
  O   O5        1.0  0.65148  0.35061  0.22199  1.0000
  O   O6        1.0  0.65150  0.35066  0.72213  1.0000
  O   O7        1.0  0.65160  0.85057  0.22206  1.0000
  O   O8        1.0  0.65154  0.85073  0.72200  1.0000
  O   O9        1.0  0.40155  0.40013  0.27868  1.0000
  O   O10       1.0  0.40158  0.40020  0.77866  1.0000
  O   O11       1.0  0.40159  0.90027  0.27864  1.0000
  O   O12       1.0  0.40155  0.90012  0.77863  1.0000
  O   O13       1.0  0.90153  0.40009  0.27854  1.0000
  O   O14       1.0  0.90158  0.40012  0.77865  1.0000
  O   O15       1.0  0.90148  0.90012  0.27866  1.0000
  O   O16       1.0  0.90167  0.90017  0.77860  1.0000
  O   O17       1.0  0.09930  0.10061  0.02850  1.0000
  O   O18       1.0  0.09938  0.10072  0.52871  1.0000
  O   O19       1.0  0.09940  0.60069  0.02878  1.0000
  O   O20       1.0  0.09928  0.60051  0.52855  1.0000
  O   O21       1.0  0.59916  0.10040  0.02851  1.0000
  O   O22       1.0  0.59933  0.10066  0.52861  1.0000
  O   O23       1.0  0.59940  0.60063  0.02867  1.0000
  O   O24       1.0  0.59936  0.60067  0.52856  1.0000
  O   O25       1.0  0.34925  0.15028  0.47214  1.0000
  O   O26       1.0  0.34923  0.15023  0.97211  1.0000
  O   O27       1.0  0.34931  0.65012  0.47209  1.0000
  O   O28       1.0  0.34942  0.65007  0.97198  1.0000
  O   O29       1.0  0.84926  0.15026  0.47203  1.0000
  O   O30       1.0  0.84928  0.15014  0.97192  1.0000
  O   O31       1.0  0.84936  0.65030  0.47195  1.0000
  O   O32       1.0  0.84937  0.65005  0.97206  1.0000
  O   O33       1.0  0.34932  0.15008  0.27871  1.0000
  O   O34       1.0  0.34943  0.15002  0.77881  1.0000
  O   O35       1.0  0.34924  0.65028  0.27857  1.0000
  O   O36       1.0  0.34939  0.65015  0.77866  1.0000
  O   O37       1.0  0.84943  0.15001  0.27867  1.0000
  O   O38       1.0  0.84929  0.15024  0.77866  1.0000
  O   O39       1.0  0.84934  0.65017  0.27857  1.0000
  O   O40       1.0  0.84940  0.65012  0.77855  1.0000
  O   O41       1.0  0.09927  0.10055  0.22196  1.0000
  O   O42       1.0  0.09932  0.10064  0.72200  1.0000
  O   O43       1.0  0.09923  0.60053  0.22200  1.0000
  O   O44       1.0  0.09948  0.60071  0.72191  1.0000
  O   O45       1.0  0.59945  0.10069  0.22196  1.0000
  O   O46       1.0  0.59948  0.10072  0.72194  1.0000
  O   O47       1.0  0.59922  0.60061  0.22202  1.0000
  O   O48       1.0  0.59941  0.60073  0.72196  1.0000
  O   O49       1.0  0.40155  0.40019  0.47195  1.0000
  O   O50       1.0  0.40152  0.40013  0.97202  1.0000
  O   O51       1.0  0.40162  0.90029  0.47203  1.0000
  O   O52       1.0  0.40156  0.90018  0.97203  1.0000
  O   O53       1.0  0.90165  0.40027  0.47198  1.0000
  O   O54       1.0  0.90164  0.40020  0.97209  1.0000
  O   O55       1.0  0.90173  0.90030  0.47209  1.0000
  O   O56       1.0  0.90158  0.90012  0.97195  1.0000
  O   O57       1.0  0.15153  0.35067  0.02865  1.0000
  O   O58       1.0  0.15149  0.35066  0.52862  1.0000
  O   O59       1.0  0.15158  0.85057  0.02865  1.0000
  O   O60       1.0  0.15176  0.85051  0.52868  1.0000
  O   O61       1.0  0.65165  0.35044  0.02853  1.0000
  O   O62       1.0  0.65149  0.35072  0.52866  1.0000
  O   O63       1.0  0.65169  0.85055  0.02859  1.0000
  O   O64       1.0  0.65161  0.85066  0.52868  1.0000
  O   O65       1.0  0.30373  0.02089  0.12533  1.0000
  O   O66       1.0  0.30384  0.02105  0.62538  1.0000
  O   O67       1.0  0.30393  0.52095  0.12535  1.0000
  O   O68       1.0  0.30379  0.52073  0.62533  1.0000
  O   O69       1.0  0.80377  0.02091  0.12526  1.0000
  O   O70       1.0  0.80390  0.02098  0.62532  1.0000
  O   O71       1.0  0.80367  0.52080  0.12532  1.0000
  O   O72       1.0  0.80387  0.52084  0.62527  1.0000
  O   O73       1.0  0.05382  0.22987  0.37532  1.0000
  O   O74       1.0  0.05384  0.23001  0.87532  1.0000
  O   O75       1.0  0.05380  0.72989  0.37533  1.0000
  O   O76       1.0  0.05380  0.72976  0.87533  1.0000
  O   O77       1.0  0.55367  0.22992  0.37531  1.0000
  O   O78       1.0  0.55375  0.22976  0.87533  1.0000
  O   O79       1.0  0.55373  0.73001  0.37536  1.0000
  O   O80       1.0  0.55379  0.72990  0.87534  1.0000
  O   O81       1.0  0.44698  0.27088  0.12533  1.0000
  O   O82       1.0  0.44713  0.27085  0.62538  1.0000
  O   O83       1.0  0.44718  0.77099  0.12532  1.0000
  O   O84       1.0  0.44702  0.77092  0.62534  1.0000
  O   O85       1.0  0.94714  0.27078  0.12534  1.0000
  O   O86       1.0  0.94705  0.27094  0.62532  1.0000
  O   O87       1.0  0.94706  0.77098  0.12534  1.0000
  O   O88       1.0  0.94716  0.77099  0.62532  1.0000
  O   O89       1.0  0.19708  0.47989  0.37529  1.0000
  O   O90       1.0  0.19708  0.47998  0.87539  1.0000
  O   O91       1.0  0.19693  0.97985  0.37539  1.0000
  O   O92       1.0  0.19717  0.97986  0.87536  1.0000
  O   O93       1.0  0.69707  0.47984  0.37531  1.0000
  O   O94       1.0  0.69710  0.48003  0.87531  1.0000
  O   O95       1.0  0.69718  0.98009  0.37534  1.0000
  O   O96       1.0  0.69708  0.97984  0.87528  1.0000
