data_image0
_chemical_formula_structural       Sr36Ti36O108
_chemical_formula_sum              "Sr36 Ti36 O108"
_cell_length_a       14.6242
_cell_length_b       13.5493
_cell_length_c       11.0691
_cell_angle_alpha    89.8577
_cell_angle_beta     100.807
_cell_angle_gamma    89.9459

_space_group_name_H-M_alt    "P 1"
_space_group_IT_number       1

loop_
  _space_group_symop_operation_xyz
  'x, y, z'

loop_
  _atom_site_type_symbol
  _atom_site_label
  _atom_site_symmetry_multiplicity
  _atom_site_fract_x
  _atom_site_fract_y
  _atom_site_fract_z
  _atom_site_occupancy
  Sr  Sr1       1.0  0.22271  0.08367  0.05616  1.0000
  Sr  Sr2       1.0  0.22274  0.08377  0.55620  1.0000
  Sr  Sr3       1.0  0.55599  0.08392  0.38945  1.0000
  Sr  Sr4       1.0  0.55596  0.08378  0.88934  1.0000
  Sr  Sr5       1.0  0.44478  0.41716  0.11179  1.0000
  Sr  Sr6       1.0  0.44476  0.41721  0.61173  1.0000
  Sr  Sr7       1.0  0.33366  0.75037  0.33409  1.0000
  Sr  Sr8       1.0  0.33369  0.75048  0.83407  1.0000
  Sr  Sr9       1.0  0.88931  0.08385  0.22241  1.0000
  Sr  Sr10      1.0  0.88935  0.08389  0.72245  1.0000
  Sr  Sr11      1.0  0.77818  0.41714  0.44464  1.0000
  Sr  Sr12      1.0  0.77812  0.41726  0.94478  1.0000
  Sr  Sr13      1.0  0.66698  0.75039  0.16680  1.0000
  Sr  Sr14      1.0  0.66704  0.75057  0.66696  1.0000
  Sr  Sr15      1.0  0.11140  0.41718  0.27838  1.0000
  Sr  Sr16      1.0  0.11150  0.41703  0.77832  1.0000
  Sr  Sr17      1.0  0.00038  0.75038  0.50029  1.0000
  Sr  Sr18      1.0  0.00034  0.75052  0.00032  1.0000
  Sr  Sr19      1.0  0.00046  0.25057  0.00037  1.0000
  Sr  Sr20      1.0  0.00038  0.25032  0.50035  1.0000
  Sr  Sr21      1.0  0.33368  0.25038  0.33394  1.0000
  Sr  Sr22      1.0  0.33378  0.25056  0.83402  1.0000
  Sr  Sr23      1.0  0.22265  0.58369  0.05623  1.0000
  Sr  Sr24      1.0  0.22263  0.58386  0.55629  1.0000
  Sr  Sr25      1.0  0.11161  0.91714  0.27828  1.0000
  Sr  Sr26      1.0  0.11144  0.91710  0.77820  1.0000
  Sr  Sr27      1.0  0.66705  0.25048  0.16702  1.0000
  Sr  Sr28      1.0  0.66699  0.25061  0.66698  1.0000
  Sr  Sr29      1.0  0.55589  0.58391  0.38946  1.0000
  Sr  Sr30      1.0  0.55596  0.58385  0.88936  1.0000
  Sr  Sr31      1.0  0.44483  0.91694  0.11181  1.0000
  Sr  Sr32      1.0  0.44489  0.91723  0.61165  1.0000
  Sr  Sr33      1.0  0.88929  0.58385  0.22238  1.0000
  Sr  Sr34      1.0  0.88928  0.58382  0.72247  1.0000
  Sr  Sr35      1.0  0.77826  0.91722  0.44465  1.0000
  Sr  Sr36      1.0  0.77812  0.91721  0.94456  1.0000
  Ti  Ti1       1.0  0.11153  0.16716  0.77820  1.0000
  Ti  Ti2       1.0  0.11159  0.16727  0.27832  1.0000
  Ti  Ti3       1.0  0.44485  0.16720  0.11174  1.0000
  Ti  Ti4       1.0  0.44480  0.16733  0.61182  1.0000
  Ti  Ti5       1.0  0.33371  0.50062  0.83406  1.0000
  Ti  Ti6       1.0  0.33372  0.50050  0.33409  1.0000
  Ti  Ti7       1.0  0.22248  0.83377  0.05620  1.0000
  Ti  Ti8       1.0  0.22262  0.83397  0.55620  1.0000
  Ti  Ti9       1.0  0.77815  0.16731  0.94469  1.0000
  Ti  Ti10      1.0  0.77822  0.16730  0.44462  1.0000
  Ti  Ti11      1.0  0.66705  0.50060  0.16705  1.0000
  Ti  Ti12      1.0  0.66705  0.50063  0.66686  1.0000
  Ti  Ti13      1.0  0.55585  0.83390  0.88934  1.0000
  Ti  Ti14      1.0  0.55599  0.83388  0.38942  1.0000
  Ti  Ti15      1.0  0.00048  0.50067  0.00037  1.0000
  Ti  Ti16      1.0  0.00038  0.50050  0.50038  1.0000
  Ti  Ti17      1.0  0.88918  0.83396  0.22228  1.0000
  Ti  Ti18      1.0  0.88917  0.83398  0.72243  1.0000
  Ti  Ti19      1.0  0.00040  0.00063  0.00030  1.0000
  Ti  Ti20      1.0  0.00044  0.00050  0.50024  1.0000
  Ti  Ti21      1.0  0.33385  0.00049  0.33395  1.0000
  Ti  Ti22      1.0  0.33386  0.00056  0.83411  1.0000
  Ti  Ti23      1.0  0.22258  0.33379  0.05620  1.0000
  Ti  Ti24      1.0  0.22258  0.33392  0.55623  1.0000
  Ti  Ti25      1.0  0.11150  0.66725  0.27836  1.0000
  Ti  Ti26      1.0  0.11148  0.66729  0.77823  1.0000
  Ti  Ti27      1.0  0.66705  0.00054  0.16694  1.0000
  Ti  Ti28      1.0  0.66709  0.00071  0.66691  1.0000
  Ti  Ti29      1.0  0.55590  0.33386  0.38934  1.0000
  Ti  Ti30      1.0  0.55595  0.33403  0.88939  1.0000
  Ti  Ti31      1.0  0.44485  0.66720  0.11183  1.0000
  Ti  Ti32      1.0  0.44486  0.66728  0.61175  1.0000
  Ti  Ti33      1.0  0.88925  0.33395  0.22245  1.0000
  Ti  Ti34      1.0  0.88920  0.33394  0.72253  1.0000
  Ti  Ti35      1.0  0.77823  0.66730  0.44456  1.0000
  Ti  Ti36      1.0  0.77815  0.66720  0.94447  1.0000
  O   O1        1.0  0.22648  0.08932  0.79863  1.0000
  O   O2        1.0  0.22642  0.08910  0.29847  1.0000
  O   O3        1.0  0.55968  0.08924  0.13175  1.0000
  O   O4        1.0  0.55979  0.08925  0.63196  1.0000
  O   O5        1.0  0.44855  0.42251  0.85407  1.0000
  O   O6        1.0  0.44866  0.42261  0.35416  1.0000
  O   O7        1.0  0.33745  0.75573  0.07629  1.0000
  O   O8        1.0  0.33740  0.75583  0.57633  1.0000
  O   O9        1.0  0.89307  0.08930  0.96522  1.0000
  O   O10       1.0  0.89306  0.08921  0.46510  1.0000
  O   O11       1.0  0.78190  0.42252  0.18752  1.0000
  O   O12       1.0  0.78190  0.42257  0.68719  1.0000
  O   O13       1.0  0.67072  0.75569  0.90948  1.0000
  O   O14       1.0  0.67076  0.75593  0.40953  1.0000
  O   O15       1.0  0.11522  0.42254  0.02073  1.0000
  O   O16       1.0  0.11532  0.42254  0.52081  1.0000
  O   O17       1.0  0.00403  0.75583  0.24302  1.0000
  O   O18       1.0  0.00415  0.75594  0.74296  1.0000
  O   O19       1.0  0.15953  0.25588  0.66523  1.0000
  O   O20       1.0  0.15957  0.25590  0.16531  1.0000
  O   O21       1.0  0.49283  0.25591  0.99862  1.0000
  O   O22       1.0  0.49286  0.25587  0.49858  1.0000
  O   O23       1.0  0.38177  0.58914  0.72083  1.0000
  O   O24       1.0  0.38183  0.58919  0.22100  1.0000
  O   O25       1.0  0.27064  0.92250  0.94309  1.0000
  O   O26       1.0  0.27064  0.92252  0.44312  1.0000
  O   O27       1.0  0.82615  0.25591  0.83177  1.0000
  O   O28       1.0  0.82619  0.25578  0.33170  1.0000
  O   O29       1.0  0.71522  0.58917  0.05413  1.0000
  O   O30       1.0  0.71512  0.58924  0.55406  1.0000
  O   O31       1.0  0.60393  0.92245  0.77634  1.0000
  O   O32       1.0  0.60395  0.92262  0.27637  1.0000
  O   O33       1.0  0.04843  0.58923  0.88740  1.0000
  O   O34       1.0  0.04846  0.58910  0.38735  1.0000
  O   O35       1.0  0.93731  0.92251  0.10958  1.0000
  O   O36       1.0  0.93732  0.92259  0.60959  1.0000
  O   O37       1.0  0.06348  0.07792  0.89128  1.0000
  O   O38       1.0  0.06357  0.07811  0.39140  1.0000
  O   O39       1.0  0.39677  0.07792  0.22461  1.0000
  O   O40       1.0  0.39691  0.07791  0.72465  1.0000
  O   O41       1.0  0.28564  0.41133  0.94685  1.0000
  O   O42       1.0  0.28578  0.41123  0.44694  1.0000
  O   O43       1.0  0.17452  0.74449  0.16895  1.0000
  O   O44       1.0  0.17450  0.74464  0.66901  1.0000
  O   O45       1.0  0.73001  0.07798  0.05771  1.0000
  O   O46       1.0  0.73017  0.07788  0.55787  1.0000
  O   O47       1.0  0.61901  0.41123  0.28008  1.0000
  O   O48       1.0  0.61895  0.41137  0.78005  1.0000
  O   O49       1.0  0.50776  0.74457  0.00225  1.0000
  O   O50       1.0  0.50785  0.74470  0.50242  1.0000
  O   O51       1.0  0.95229  0.41139  0.11348  1.0000
  O   O52       1.0  0.95226  0.41134  0.61331  1.0000
  O   O53       1.0  0.84107  0.74477  0.33557  1.0000
  O   O54       1.0  0.84121  0.74459  0.83555  1.0000
  O   O55       1.0  0.99668  0.24467  0.75790  1.0000
  O   O56       1.0  0.99668  0.24466  0.25794  1.0000
  O   O57       1.0  0.32995  0.24456  0.09135  1.0000
  O   O58       1.0  0.32993  0.24443  0.59131  1.0000
  O   O59       1.0  0.21887  0.57794  0.81356  1.0000
  O   O60       1.0  0.21888  0.57793  0.31362  1.0000
  O   O61       1.0  0.10769  0.91119  0.03570  1.0000
  O   O62       1.0  0.10773  0.91128  0.53573  1.0000
  O   O63       1.0  0.66331  0.24465  0.92456  1.0000
  O   O64       1.0  0.66326  0.24450  0.42455  1.0000
  O   O65       1.0  0.55228  0.57798  0.14698  1.0000
  O   O66       1.0  0.55220  0.57796  0.64674  1.0000
  O   O67       1.0  0.44111  0.91124  0.86923  1.0000
  O   O68       1.0  0.44106  0.91117  0.36899  1.0000
  O   O69       1.0  0.88553  0.57792  0.98002  1.0000
  O   O70       1.0  0.88562  0.57811  0.48003  1.0000
  O   O71       1.0  0.77439  0.91126  0.20226  1.0000
  O   O72       1.0  0.77442  0.91128  0.70253  1.0000
  O   O73       1.0  0.05601  0.08358  0.13932  1.0000
  O   O74       1.0  0.05599  0.08349  0.63948  1.0000
  O   O75       1.0  0.38942  0.08335  0.47283  1.0000
  O   O76       1.0  0.38928  0.08349  0.97284  1.0000
  O   O77       1.0  0.27823  0.41691  0.19497  1.0000
  O   O78       1.0  0.27823  0.41678  0.69500  1.0000
  O   O79       1.0  0.16699  0.75025  0.41707  1.0000
  O   O80       1.0  0.16713  0.75015  0.91710  1.0000
  O   O81       1.0  0.72268  0.08355  0.30593  1.0000
  O   O82       1.0  0.72262  0.08356  0.80600  1.0000
  O   O83       1.0  0.61159  0.41683  0.52826  1.0000
  O   O84       1.0  0.61148  0.41696  0.02819  1.0000
  O   O85       1.0  0.50042  0.75022  0.25049  1.0000
  O   O86       1.0  0.50021  0.75020  0.75053  1.0000
  O   O87       1.0  0.94485  0.41680  0.36164  1.0000
  O   O88       1.0  0.94484  0.41691  0.86148  1.0000
  O   O89       1.0  0.83370  0.75036  0.58371  1.0000
  O   O90       1.0  0.83374  0.75023  0.08362  1.0000
  O   O91       1.0  0.16708  0.25029  0.91718  1.0000
  O   O92       1.0  0.16720  0.25025  0.41712  1.0000
  O   O93       1.0  0.50035  0.25019  0.25054  1.0000
  O   O94       1.0  0.50038  0.25030  0.75045  1.0000
  O   O95       1.0  0.38936  0.58343  0.97286  1.0000
  O   O96       1.0  0.38928  0.58360  0.47277  1.0000
  O   O97       1.0  0.27821  0.91675  0.19500  1.0000
  O   O98       1.0  0.27819  0.91694  0.69502  1.0000
  O   O99       1.0  0.83370  0.25031  0.08370  1.0000
  O   O100      1.0  0.83379  0.25020  0.58366  1.0000
  O   O101      1.0  0.72265  0.58357  0.30606  1.0000
  O   O102      1.0  0.72270  0.58348  0.80591  1.0000
  O   O103      1.0  0.61155  0.91677  0.02826  1.0000
  O   O104      1.0  0.61150  0.91692  0.52823  1.0000
  O   O105      1.0  0.05595  0.58360  0.13932  1.0000
  O   O106      1.0  0.05595  0.58358  0.63932  1.0000
  O   O107      1.0  0.94489  0.91696  0.36148  1.0000
  O   O108      1.0  0.94484  0.91696  0.86151  1.0000
