data_image0
_chemical_formula_structural       Ca8Ta16Bi16O72
_chemical_formula_sum              "Ca8 Ta16 Bi16 O72"
_cell_length_a       10.8811
_cell_length_b       12.8186
_cell_length_c       10.9729
_cell_angle_alpha    90.0001
_cell_angle_beta     90.0006
_cell_angle_gamma    102.254

_space_group_name_H-M_alt    "P 1"
_space_group_IT_number       1

loop_
  _space_group_symop_operation_xyz
  'x, y, z'

loop_
  _atom_site_type_symbol
  _atom_site_label
  _atom_site_symmetry_multiplicity
  _atom_site_fract_x
  _atom_site_fract_y
  _atom_site_fract_z
  _atom_site_occupancy
  Ca  Ca1       1.0  0.37826  0.00044  0.25129  1.0000
  Ca  Ca2       1.0  0.37826  0.00042  0.75129  1.0000
  Ca  Ca3       1.0  0.87826  0.00041  0.25129  1.0000
  Ca  Ca4       1.0  0.87826  0.00042  0.75129  1.0000
  Ca  Ca5       1.0  0.12282  0.00040  0.50129  1.0000
  Ca  Ca6       1.0  0.12280  0.00040  0.00128  1.0000
  Ca  Ca7       1.0  0.62283  0.00040  0.50129  1.0000
  Ca  Ca8       1.0  0.62283  0.00041  0.00128  1.0000
  Ta  Ta1       1.0  0.33350  0.83653  0.01838  1.0000
  Ta  Ta2       1.0  0.33349  0.83655  0.51839  1.0000
  Ta  Ta3       1.0  0.83351  0.83653  0.01839  1.0000
  Ta  Ta4       1.0  0.83351  0.83652  0.51840  1.0000
  Ta  Ta5       1.0  0.16758  0.16430  0.26841  1.0000
  Ta  Ta6       1.0  0.16758  0.16429  0.76839  1.0000
  Ta  Ta7       1.0  0.66756  0.16430  0.26841  1.0000
  Ta  Ta8       1.0  0.66756  0.16430  0.76840  1.0000
  Ta  Ta9       1.0  0.08562  0.83653  0.26839  1.0000
  Ta  Ta10      1.0  0.08563  0.83654  0.76838  1.0000
  Ta  Ta11      1.0  0.58561  0.83653  0.26839  1.0000
  Ta  Ta12      1.0  0.58563  0.83655  0.76841  1.0000
  Ta  Ta13      1.0  0.41546  0.16429  0.01840  1.0000
  Ta  Ta14      1.0  0.41545  0.16430  0.51841  1.0000
  Ta  Ta15      1.0  0.91545  0.16429  0.01839  1.0000
  Ta  Ta16      1.0  0.91546  0.16430  0.51842  1.0000
  Bi  Bi1       1.0  0.21174  0.39875  0.48011  1.0000
  Bi  Bi2       1.0  0.21173  0.39874  0.98010  1.0000
  Bi  Bi3       1.0  0.71173  0.39874  0.48012  1.0000
  Bi  Bi4       1.0  0.71172  0.39874  0.98009  1.0000
  Bi  Bi5       1.0  0.01256  0.60210  0.48010  1.0000
  Bi  Bi6       1.0  0.01259  0.60210  0.98011  1.0000
  Bi  Bi7       1.0  0.51258  0.60211  0.48009  1.0000
  Bi  Bi8       1.0  0.51258  0.60211  0.98011  1.0000
  Bi  Bi9       1.0  0.48849  0.39873  0.23010  1.0000
  Bi  Bi10      1.0  0.48849  0.39876  0.73011  1.0000
  Bi  Bi11      1.0  0.98852  0.39874  0.23009  1.0000
  Bi  Bi12      1.0  0.98850  0.39874  0.73011  1.0000
  Bi  Bi13      1.0  0.28934  0.60211  0.23010  1.0000
  Bi  Bi14      1.0  0.28935  0.60211  0.73011  1.0000
  Bi  Bi15      1.0  0.78935  0.60209  0.23010  1.0000
  Bi  Bi16      1.0  0.78937  0.60211  0.73010  1.0000
  O   O1        1.0  0.49187  0.31061  0.02401  1.0000
  O   O2        1.0  0.49186  0.31061  0.52399  1.0000
  O   O3        1.0  0.99188  0.31060  0.02402  1.0000
  O   O4        1.0  0.99188  0.31061  0.52403  1.0000
  O   O5        1.0  0.18133  0.82790  0.42488  1.0000
  O   O6        1.0  0.18133  0.82789  0.92488  1.0000
  O   O7        1.0  0.68132  0.82791  0.42485  1.0000
  O   O8        1.0  0.68133  0.82789  0.92487  1.0000
  O   O9        1.0  0.33712  0.00042  0.03495  1.0000
  O   O10       1.0  0.33714  0.00042  0.53496  1.0000
  O   O11       1.0  0.83714  0.00042  0.03495  1.0000
  O   O12       1.0  0.83714  0.00043  0.53494  1.0000
  O   O13       1.0  0.16395  0.00042  0.28494  1.0000
  O   O14       1.0  0.16394  0.00041  0.78494  1.0000
  O   O15       1.0  0.66395  0.00042  0.28495  1.0000
  O   O16       1.0  0.66395  0.00042  0.78496  1.0000
  O   O17       1.0  0.26760  0.17292  0.42487  1.0000
  O   O18       1.0  0.26759  0.17292  0.92486  1.0000
  O   O19       1.0  0.76760  0.17294  0.42486  1.0000
  O   O20       1.0  0.76760  0.17293  0.92487  1.0000
  O   O21       1.0  0.38109  0.49982  0.11691  1.0000
  O   O22       1.0  0.38110  0.49982  0.61692  1.0000
  O   O23       1.0  0.88111  0.49981  0.11691  1.0000
  O   O24       1.0  0.88112  0.49981  0.61693  1.0000
  O   O25       1.0  0.16426  0.31060  0.27402  1.0000
  O   O26       1.0  0.16428  0.31061  0.77400  1.0000
  O   O27       1.0  0.66428  0.31060  0.27401  1.0000
  O   O28       1.0  0.66429  0.31061  0.77401  1.0000
  O   O29       1.0  0.04994  0.12423  0.13314  1.0000
  O   O30       1.0  0.04991  0.12421  0.63314  1.0000
  O   O31       1.0  0.54993  0.12422  0.13313  1.0000
  O   O32       1.0  0.54993  0.12422  0.63312  1.0000
  O   O33       1.0  0.48802  0.87659  0.13313  1.0000
  O   O34       1.0  0.48802  0.87660  0.63313  1.0000
  O   O35       1.0  0.98801  0.87658  0.13313  1.0000
  O   O36       1.0  0.98802  0.87659  0.63313  1.0000
  O   O37       1.0  0.23348  0.82791  0.17487  1.0000
  O   O38       1.0  0.23348  0.82791  0.67487  1.0000
  O   O39       1.0  0.73347  0.82790  0.17486  1.0000
  O   O40       1.0  0.73347  0.82793  0.67486  1.0000
  O   O41       1.0  0.00919  0.69022  0.27399  1.0000
  O   O42       1.0  0.00918  0.69021  0.77400  1.0000
  O   O43       1.0  0.50920  0.69023  0.27401  1.0000
  O   O44       1.0  0.50918  0.69021  0.77402  1.0000
  O   O45       1.0  0.45114  0.87660  0.38312  1.0000
  O   O46       1.0  0.45113  0.87659  0.88315  1.0000
  O   O47       1.0  0.95114  0.87659  0.38312  1.0000
  O   O48       1.0  0.95113  0.87659  0.88312  1.0000
  O   O49       1.0  0.11995  0.50102  0.36692  1.0000
  O   O50       1.0  0.11997  0.50102  0.86693  1.0000
  O   O51       1.0  0.61996  0.50101  0.36692  1.0000
  O   O52       1.0  0.61996  0.50103  0.86693  1.0000
  O   O53       1.0  0.31973  0.17292  0.17487  1.0000
  O   O54       1.0  0.31973  0.17293  0.67488  1.0000
  O   O55       1.0  0.81975  0.17293  0.17486  1.0000
  O   O56       1.0  0.81974  0.17292  0.67484  1.0000
  O   O57       1.0  0.36966  0.49983  0.36691  1.0000
  O   O58       1.0  0.36967  0.49983  0.86691  1.0000
  O   O59       1.0  0.86966  0.49981  0.36692  1.0000
  O   O60       1.0  0.86966  0.49982  0.86692  1.0000
  O   O61       1.0  0.01306  0.12422  0.38313  1.0000
  O   O62       1.0  0.01306  0.12422  0.88314  1.0000
  O   O63       1.0  0.51307  0.12422  0.38314  1.0000
  O   O64       1.0  0.51305  0.12423  0.88314  1.0000
  O   O65       1.0  0.33677  0.69022  0.02402  1.0000
  O   O66       1.0  0.33677  0.69021  0.52402  1.0000
  O   O67       1.0  0.83677  0.69020  0.02400  1.0000
  O   O68       1.0  0.83678  0.69022  0.52401  1.0000
  O   O69       1.0  0.13141  0.50101  0.11692  1.0000
  O   O70       1.0  0.13141  0.50102  0.61691  1.0000
  O   O71       1.0  0.63139  0.50102  0.11691  1.0000
  O   O72       1.0  0.63141  0.50101  0.61691  1.0000
