data_image0
_chemical_formula_structural       Cs24Y24O48
_chemical_formula_sum              "Cs24 Y24 O48"
_cell_length_a       10.6115
_cell_length_b       12.2533
_cell_length_c       13.653
_cell_angle_alpha    90.0136
_cell_angle_beta     90.0125
_cell_angle_gamma    90.0006

_space_group_name_H-M_alt    "P 1"
_space_group_IT_number       1

loop_
  _space_group_symop_operation_xyz
  'x, y, z'

loop_
  _atom_site_type_symbol
  _atom_site_label
  _atom_site_symmetry_multiplicity
  _atom_site_fract_x
  _atom_site_fract_y
  _atom_site_fract_z
  _atom_site_occupancy
  Cs  Cs1       1.0  0.16715  0.08387  0.50011  1.0000
  Cs  Cs2       1.0  0.50044  0.08380  0.50032  1.0000
  Cs  Cs3       1.0  0.33358  0.33379  0.50061  1.0000
  Cs  Cs4       1.0  0.16719  0.58368  0.50045  1.0000
  Cs  Cs5       1.0  0.83373  0.08377  0.50037  1.0000
  Cs  Cs6       1.0  0.66695  0.33364  0.50064  1.0000
  Cs  Cs7       1.0  0.50061  0.58370  0.50023  1.0000
  Cs  Cs8       1.0  0.33379  0.83376  0.50052  1.0000
  Cs  Cs9       1.0  0.00024  0.33372  0.50025  1.0000
  Cs  Cs10      1.0  0.83388  0.58374  0.50040  1.0000
  Cs  Cs11      1.0  0.66710  0.83373  0.50013  1.0000
  Cs  Cs12      1.0  0.00061  0.83386  0.50067  1.0000
  Cs  Cs13      1.0  0.00056  0.00018  0.00028  1.0000
  Cs  Cs14      1.0  0.33365  0.00055  0.00013  1.0000
  Cs  Cs15      1.0  0.16692  0.25041  0.00048  1.0000
  Cs  Cs16      1.0  0.00044  0.50035  0.00037  1.0000
  Cs  Cs17      1.0  0.66710  0.00030  0.00022  1.0000
  Cs  Cs18      1.0  0.50040  0.25045  0.00061  1.0000
  Cs  Cs19      1.0  0.33379  0.50045  0.00050  1.0000
  Cs  Cs20      1.0  0.16710  0.75028  0.00021  1.0000
  Cs  Cs21      1.0  0.83371  0.25025  0.00028  1.0000
  Cs  Cs22      1.0  0.66721  0.50030  0.00027  1.0000
  Cs  Cs23      1.0  0.50038  0.75051  0.00033  1.0000
  Cs  Cs24      1.0  0.83376  0.75036  0.00045  1.0000
  Y   Y1        1.0  0.00047  0.16721  0.25021  1.0000
  Y   Y2        1.0  0.33383  0.16710  0.25022  1.0000
  Y   Y3        1.0  0.16720  0.41706  0.25030  1.0000
  Y   Y4        1.0  0.00043  0.66705  0.25024  1.0000
  Y   Y5        1.0  0.66715  0.16709  0.25028  1.0000
  Y   Y6        1.0  0.50059  0.41715  0.25036  1.0000
  Y   Y7        1.0  0.33371  0.66711  0.25031  1.0000
  Y   Y8        1.0  0.16710  0.91703  0.25019  1.0000
  Y   Y9        1.0  0.83376  0.41716  0.25024  1.0000
  Y   Y10       1.0  0.66710  0.66717  0.25021  1.0000
  Y   Y11       1.0  0.50041  0.91719  0.25018  1.0000
  Y   Y12       1.0  0.83381  0.91716  0.25029  1.0000
  Y   Y13       1.0  0.00032  0.16709  0.75044  1.0000
  Y   Y14       1.0  0.33365  0.16712  0.75055  1.0000
  Y   Y15       1.0  0.16722  0.41706  0.75050  1.0000
  Y   Y16       1.0  0.00059  0.66713  0.75042  1.0000
  Y   Y17       1.0  0.66701  0.16708  0.75064  1.0000
  Y   Y18       1.0  0.50049  0.41707  0.75059  1.0000
  Y   Y19       1.0  0.33397  0.66707  0.75037  1.0000
  Y   Y20       1.0  0.16714  0.91713  0.75038  1.0000
  Y   Y21       1.0  0.83394  0.41713  0.75049  1.0000
  Y   Y22       1.0  0.66719  0.66706  0.75048  1.0000
  Y   Y23       1.0  0.50041  0.91711  0.75043  1.0000
  Y   Y24       1.0  0.83377  0.91707  0.75043  1.0000
  O   O1        1.0  0.16705  0.08382  0.16821  1.0000
  O   O2        1.0  0.50042  0.08388  0.16812  1.0000
  O   O3        1.0  0.33386  0.33366  0.16821  1.0000
  O   O4        1.0  0.16707  0.58361  0.16822  1.0000
  O   O5        1.0  0.83377  0.08384  0.16828  1.0000
  O   O6        1.0  0.66705  0.33365  0.16821  1.0000
  O   O7        1.0  0.50060  0.58375  0.16826  1.0000
  O   O8        1.0  0.33369  0.83371  0.16801  1.0000
  O   O9        1.0  0.00051  0.33381  0.16822  1.0000
  O   O10       1.0  0.83371  0.58378  0.16815  1.0000
  O   O11       1.0  0.66715  0.83385  0.16815  1.0000
  O   O12       1.0  0.00054  0.83373  0.16825  1.0000
  O   O13       1.0  0.16696  0.08369  0.83258  1.0000
  O   O14       1.0  0.50028  0.08373  0.83259  1.0000
  O   O15       1.0  0.33368  0.33387  0.83266  1.0000
  O   O16       1.0  0.16737  0.58376  0.83242  1.0000
  O   O17       1.0  0.83380  0.08377  0.83274  1.0000
  O   O18       1.0  0.66717  0.33365  0.83256  1.0000
  O   O19       1.0  0.50060  0.58381  0.83264  1.0000
  O   O20       1.0  0.33391  0.83386  0.83248  1.0000
  O   O21       1.0  0.00057  0.33379  0.83255  1.0000
  O   O22       1.0  0.83398  0.58377  0.83254  1.0000
  O   O23       1.0  0.66717  0.83373  0.83244  1.0000
  O   O24       1.0  0.00058  0.83384  0.83241  1.0000
  O   O25       1.0  0.00049  0.00055  0.33235  1.0000
  O   O26       1.0  0.33393  0.00049  0.33219  1.0000
  O   O27       1.0  0.16711  0.25047  0.33237  1.0000
  O   O28       1.0  0.00041  0.50038  0.33238  1.0000
  O   O29       1.0  0.66721  0.00040  0.33236  1.0000
  O   O30       1.0  0.50053  0.25037  0.33240  1.0000
  O   O31       1.0  0.33388  0.50042  0.33233  1.0000
  O   O32       1.0  0.16714  0.75036  0.33230  1.0000
  O   O33       1.0  0.83386  0.25058  0.33241  1.0000
  O   O34       1.0  0.66725  0.50052  0.33238  1.0000
  O   O35       1.0  0.50035  0.75061  0.33223  1.0000
  O   O36       1.0  0.83386  0.75040  0.33233  1.0000
  O   O37       1.0  0.00031  0.00052  0.66828  1.0000
  O   O38       1.0  0.33368  0.00052  0.66834  1.0000
  O   O39       1.0  0.16720  0.25032  0.66840  1.0000
  O   O40       1.0  0.00055  0.50044  0.66842  1.0000
  O   O41       1.0  0.66715  0.00056  0.66852  1.0000
  O   O42       1.0  0.50031  0.25035  0.66850  1.0000
  O   O43       1.0  0.33406  0.50028  0.66833  1.0000
  O   O44       1.0  0.16728  0.75045  0.66826  1.0000
  O   O45       1.0  0.83379  0.25039  0.66843  1.0000
  O   O46       1.0  0.66713  0.50032  0.66847  1.0000
  O   O47       1.0  0.50043  0.75035  0.66830  1.0000
  O   O48       1.0  0.83391  0.75038  0.66835  1.0000
