data_image0
_chemical_formula_structural       Y24In24O72
_chemical_formula_sum              "Y24 In24 O72"
_cell_length_a       12.5798
_cell_length_b       10.8944
_cell_length_c       12.2857
_cell_angle_alpha    89.9999
_cell_angle_beta     90.0003
_cell_angle_gamma    89.9999

_space_group_name_H-M_alt    "P 1"
_space_group_IT_number       1

loop_
  _space_group_symop_operation_xyz
  'x, y, z'

loop_
  _atom_site_type_symbol
  _atom_site_label
  _atom_site_symmetry_multiplicity
  _atom_site_fract_x
  _atom_site_fract_y
  _atom_site_fract_z
  _atom_site_occupancy
  Y   Y1        1.0  0.00039  0.00041  0.27150  1.0000
  Y   Y2        1.0  0.25022  0.50048  0.27167  1.0000
  Y   Y3        1.0  0.50038  0.00028  0.27158  1.0000
  Y   Y4        1.0  0.75037  0.50039  0.27169  1.0000
  Y   Y5        1.0  0.00040  0.00040  0.77156  1.0000
  Y   Y6        1.0  0.25044  0.50049  0.77157  1.0000
  Y   Y7        1.0  0.50039  0.00042  0.77161  1.0000
  Y   Y8        1.0  0.75036  0.50049  0.77155  1.0000
  Y   Y9        1.0  0.25042  0.16719  0.23634  1.0000
  Y   Y10       1.0  0.50038  0.66700  0.23634  1.0000
  Y   Y11       1.0  0.75034  0.16708  0.23642  1.0000
  Y   Y12       1.0  0.00028  0.66700  0.23632  1.0000
  Y   Y13       1.0  0.25040  0.83375  0.73628  1.0000
  Y   Y14       1.0  0.50044  0.33374  0.73634  1.0000
  Y   Y15       1.0  0.75045  0.83386  0.73638  1.0000
  Y   Y16       1.0  0.00044  0.33373  0.73641  1.0000
  Y   Y17       1.0  0.25051  0.16701  0.73634  1.0000
  Y   Y18       1.0  0.50037  0.66712  0.73629  1.0000
  Y   Y19       1.0  0.75049  0.16722  0.73628  1.0000
  Y   Y20       1.0  0.00032  0.66709  0.73631  1.0000
  Y   Y21       1.0  0.25027  0.83375  0.23642  1.0000
  Y   Y22       1.0  0.50035  0.33376  0.23631  1.0000
  Y   Y23       1.0  0.75041  0.83374  0.23629  1.0000
  Y   Y24       1.0  0.00036  0.33368  0.23620  1.0000
  In  In1       1.0  0.08371  0.83376  0.00161  1.0000
  In  In2       1.0  0.33376  0.33393  0.00166  1.0000
  In  In3       1.0  0.58370  0.83364  0.00161  1.0000
  In  In4       1.0  0.83379  0.33363  0.00168  1.0000
  In  In5       1.0  0.16692  0.00052  0.50165  1.0000
  In  In6       1.0  0.41704  0.50044  0.50164  1.0000
  In  In7       1.0  0.66688  0.00049  0.50171  1.0000
  In  In8       1.0  0.91709  0.50042  0.50162  1.0000
  In  In9       1.0  0.16699  0.33376  0.50175  1.0000
  In  In10      1.0  0.41699  0.83367  0.50160  1.0000
  In  In11      1.0  0.66701  0.33386  0.50165  1.0000
  In  In12      1.0  0.91700  0.83377  0.50160  1.0000
  In  In13      1.0  0.08392  0.16704  0.00151  1.0000
  In  In14      1.0  0.33372  0.66720  0.00169  1.0000
  In  In15      1.0  0.58373  0.16714  0.00163  1.0000
  In  In16      1.0  0.83364  0.66707  0.00162  1.0000
  In  In17      1.0  0.33381  0.00039  0.00170  1.0000
  In  In18      1.0  0.58383  0.50043  0.00168  1.0000
  In  In19      1.0  0.83368  0.00046  0.00157  1.0000
  In  In20      1.0  0.08363  0.50061  0.00158  1.0000
  In  In21      1.0  0.16703  0.66716  0.50168  1.0000
  In  In22      1.0  0.41696  0.16707  0.50158  1.0000
  In  In23      1.0  0.66706  0.66727  0.50169  1.0000
  In  In24      1.0  0.91694  0.16714  0.50154  1.0000
  O   O1        1.0  0.07683  0.84740  0.17291  1.0000
  O   O2        1.0  0.32679  0.34765  0.17295  1.0000
  O   O3        1.0  0.57698  0.84738  0.17292  1.0000
  O   O4        1.0  0.82685  0.34736  0.17300  1.0000
  O   O5        1.0  0.15326  0.00037  0.67291  1.0000
  O   O6        1.0  0.40341  0.50045  0.67298  1.0000
  O   O7        1.0  0.65330  0.00058  0.67297  1.0000
  O   O8        1.0  0.90331  0.50030  0.67289  1.0000
  O   O9        1.0  0.17396  0.34743  0.67308  1.0000
  O   O10       1.0  0.42390  0.84756  0.67291  1.0000
  O   O11       1.0  0.67394  0.34756  0.67292  1.0000
  O   O12       1.0  0.92395  0.84753  0.67293  1.0000
  O   O13       1.0  0.07691  0.15331  0.17279  1.0000
  O   O14       1.0  0.32674  0.65350  0.17299  1.0000
  O   O15       1.0  0.57691  0.15327  0.17295  1.0000
  O   O16       1.0  0.82676  0.65331  0.17299  1.0000
  O   O17       1.0  0.34737  0.00033  0.17301  1.0000
  O   O18       1.0  0.59753  0.50037  0.17302  1.0000
  O   O19       1.0  0.84735  0.00049  0.17289  1.0000
  O   O20       1.0  0.09732  0.50042  0.17291  1.0000
  O   O21       1.0  0.17393  0.65331  0.67292  1.0000
  O   O22       1.0  0.42402  0.15332  0.67289  1.0000
  O   O23       1.0  0.67384  0.65343  0.67295  1.0000
  O   O24       1.0  0.92393  0.15340  0.67286  1.0000
  O   O25       1.0  0.15965  0.68162  0.33211  1.0000
  O   O26       1.0  0.40987  0.18163  0.33194  1.0000
  O   O27       1.0  0.65985  0.68162  0.33203  1.0000
  O   O28       1.0  0.90988  0.18155  0.33188  1.0000
  O   O29       1.0  0.31922  0.00038  0.83203  1.0000
  O   O30       1.0  0.56926  0.50040  0.83204  1.0000
  O   O31       1.0  0.81931  0.00053  0.83194  1.0000
  O   O32       1.0  0.06923  0.50059  0.83198  1.0000
  O   O33       1.0  0.09108  0.18139  0.83190  1.0000
  O   O34       1.0  0.34106  0.68171  0.83204  1.0000
  O   O35       1.0  0.59099  0.18157  0.83201  1.0000
  O   O36       1.0  0.84084  0.68152  0.83194  1.0000
  O   O37       1.0  0.15985  0.31918  0.33206  1.0000
  O   O38       1.0  0.40986  0.81913  0.33198  1.0000
  O   O39       1.0  0.65978  0.31933  0.33205  1.0000
  O   O40       1.0  0.90979  0.81922  0.33196  1.0000
  O   O41       1.0  0.18145  0.00062  0.33203  1.0000
  O   O42       1.0  0.43143  0.50056  0.33202  1.0000
  O   O43       1.0  0.68151  0.00030  0.33209  1.0000
  O   O44       1.0  0.93151  0.50016  0.33198  1.0000
  O   O45       1.0  0.09106  0.81910  0.83202  1.0000
  O   O46       1.0  0.34101  0.31931  0.83204  1.0000
  O   O47       1.0  0.59108  0.81923  0.83200  1.0000
  O   O48       1.0  0.84107  0.31933  0.83205  1.0000
  O   O49       1.0  0.00025  0.00047  0.46919  1.0000
  O   O50       1.0  0.25032  0.50040  0.46949  1.0000
  O   O51       1.0  0.50022  0.00035  0.46930  1.0000
  O   O52       1.0  0.75036  0.50052  0.46945  1.0000
  O   O53       1.0  0.00036  0.00044  0.96939  1.0000
  O   O54       1.0  0.25035  0.50058  0.96933  1.0000
  O   O55       1.0  0.50042  0.00038  0.96935  1.0000
  O   O56       1.0  0.75048  0.50038  0.96948  1.0000
  O   O57       1.0  0.25059  0.16712  0.02974  1.0000
  O   O58       1.0  0.50035  0.66698  0.02993  1.0000
  O   O59       1.0  0.75033  0.16706  0.02976  1.0000
  O   O60       1.0  0.00024  0.66720  0.02986  1.0000
  O   O61       1.0  0.25035  0.83384  0.52983  1.0000
  O   O62       1.0  0.50034  0.33373  0.52982  1.0000
  O   O63       1.0  0.75043  0.83390  0.52999  1.0000
  O   O64       1.0  0.00036  0.33374  0.52987  1.0000
  O   O65       1.0  0.25038  0.16708  0.53002  1.0000
  O   O66       1.0  0.50036  0.66716  0.52996  1.0000
  O   O67       1.0  0.75033  0.16712  0.52975  1.0000
  O   O68       1.0  0.00031  0.66714  0.52984  1.0000
  O   O69       1.0  0.25032  0.83381  0.02990  1.0000
  O   O70       1.0  0.50049  0.33377  0.02996  1.0000
  O   O71       1.0  0.75039  0.83374  0.02972  1.0000
  O   O72       1.0  0.00048  0.33377  0.02962  1.0000
