data_image0
_chemical_formula_structural       Li16Y16Si16O64
_chemical_formula_sum              "Li16 Y16 Si16 O64"
_cell_length_a       12.3397
_cell_length_b       10.8203
_cell_length_c       9.99411
_cell_angle_alpha    96.1595
_cell_angle_beta     90.001
_cell_angle_gamma    90.002

_space_group_name_H-M_alt    "P 1"
_space_group_IT_number       1

loop_
  _space_group_symop_operation_xyz
  'x, y, z'

loop_
  _atom_site_type_symbol
  _atom_site_label
  _atom_site_symmetry_multiplicity
  _atom_site_fract_x
  _atom_site_fract_y
  _atom_site_fract_z
  _atom_site_occupancy
  Li  Li1       1.0  0.06769  0.67603  0.43185  1.0000
  Li  Li2       1.0  0.06772  0.17601  0.43188  1.0000
  Li  Li3       1.0  0.56768  0.67602  0.43191  1.0000
  Li  Li4       1.0  0.56770  0.17602  0.43189  1.0000
  Li  Li5       1.0  0.31769  0.07496  0.06907  1.0000
  Li  Li6       1.0  0.31770  0.57491  0.06909  1.0000
  Li  Li7       1.0  0.81770  0.07497  0.06912  1.0000
  Li  Li8       1.0  0.81769  0.57496  0.06907  1.0000
  Li  Li9       1.0  0.43321  0.32496  0.56907  1.0000
  Li  Li10      1.0  0.43316  0.82493  0.56912  1.0000
  Li  Li11      1.0  0.93322  0.32493  0.56911  1.0000
  Li  Li12      1.0  0.93321  0.82496  0.56909  1.0000
  Li  Li13      1.0  0.18317  0.92604  0.93193  1.0000
  Li  Li14      1.0  0.18319  0.42601  0.93189  1.0000
  Li  Li15      1.0  0.68317  0.92606  0.93193  1.0000
  Li  Li16      1.0  0.68318  0.42605  0.93186  1.0000
  Y   Y1        1.0  0.05969  0.64763  0.84791  1.0000
  Y   Y2        1.0  0.05967  0.14763  0.84793  1.0000
  Y   Y3        1.0  0.55966  0.64763  0.84796  1.0000
  Y   Y4        1.0  0.55968  0.14763  0.84795  1.0000
  Y   Y5        1.0  0.44120  0.35337  0.15308  1.0000
  Y   Y6        1.0  0.44119  0.85339  0.15310  1.0000
  Y   Y7        1.0  0.94119  0.35338  0.15307  1.0000
  Y   Y8        1.0  0.94117  0.85337  0.15310  1.0000
  Y   Y9        1.0  0.30967  0.60335  0.65305  1.0000
  Y   Y10       1.0  0.30969  0.10338  0.65310  1.0000
  Y   Y11       1.0  0.80967  0.60338  0.65310  1.0000
  Y   Y12       1.0  0.80968  0.10336  0.65310  1.0000
  Y   Y13       1.0  0.19119  0.39765  0.34790  1.0000
  Y   Y14       1.0  0.19118  0.89765  0.34793  1.0000
  Y   Y15       1.0  0.69121  0.39764  0.34795  1.0000
  Y   Y16       1.0  0.69119  0.89765  0.34797  1.0000
  Si  Si1       1.0  0.32629  0.63268  0.35919  1.0000
  Si  Si2       1.0  0.32628  0.13267  0.35925  1.0000
  Si  Si3       1.0  0.82628  0.63267  0.35925  1.0000
  Si  Si4       1.0  0.82631  0.13265  0.35925  1.0000
  Si  Si5       1.0  0.17460  0.36837  0.64177  1.0000
  Si  Si6       1.0  0.17460  0.86838  0.64178  1.0000
  Si  Si7       1.0  0.67460  0.36836  0.64184  1.0000
  Si  Si8       1.0  0.67456  0.86836  0.64183  1.0000
  Si  Si9       1.0  0.07629  0.11836  0.14178  1.0000
  Si  Si10      1.0  0.07629  0.61838  0.14177  1.0000
  Si  Si11      1.0  0.57629  0.11838  0.14182  1.0000
  Si  Si12      1.0  0.57629  0.61837  0.14181  1.0000
  Si  Si13      1.0  0.42458  0.88262  0.85921  1.0000
  Si  Si14      1.0  0.42462  0.38263  0.85920  1.0000
  Si  Si15      1.0  0.92459  0.88264  0.85923  1.0000
  Si  Si16      1.0  0.92458  0.38264  0.85921  1.0000
  O   O1        1.0  0.43016  0.50480  0.77705  1.0000
  O   O2        1.0  0.43014  0.00478  0.77707  1.0000
  O   O3        1.0  0.93014  0.50477  0.77702  1.0000
  O   O4        1.0  0.93012  0.00479  0.77706  1.0000
  O   O5        1.0  0.32072  0.25482  0.27708  1.0000
  O   O6        1.0  0.32074  0.75485  0.27706  1.0000
  O   O7        1.0  0.82075  0.25482  0.27710  1.0000
  O   O8        1.0  0.82071  0.75484  0.27710  1.0000
  O   O9        1.0  0.08171  0.35508  0.52518  1.0000
  O   O10       1.0  0.08172  0.85508  0.52518  1.0000
  O   O11       1.0  0.58173  0.35507  0.52523  1.0000
  O   O12       1.0  0.58168  0.85507  0.52523  1.0000
  O   O13       1.0  0.41953  0.75668  0.75208  1.0000
  O   O14       1.0  0.41959  0.25669  0.75206  1.0000
  O   O15       1.0  0.91952  0.75668  0.75213  1.0000
  O   O16       1.0  0.91959  0.25666  0.75213  1.0000
  O   O17       1.0  0.07074  0.49623  0.22393  1.0000
  O   O18       1.0  0.07069  0.99623  0.22398  1.0000
  O   O19       1.0  0.57073  0.49622  0.22399  1.0000
  O   O20       1.0  0.57073  0.99624  0.22399  1.0000
  O   O21       1.0  0.28629  0.39096  0.55558  1.0000
  O   O22       1.0  0.28628  0.89099  0.55562  1.0000
  O   O23       1.0  0.78630  0.39093  0.55565  1.0000
  O   O24       1.0  0.78626  0.89096  0.55564  1.0000
  O   O25       1.0  0.33132  0.50672  0.25205  1.0000
  O   O26       1.0  0.33132  0.00673  0.25212  1.0000
  O   O27       1.0  0.83136  0.50673  0.25211  1.0000
  O   O28       1.0  0.83136  0.00671  0.25210  1.0000
  O   O29       1.0  0.21460  0.61007  0.44540  1.0000
  O   O30       1.0  0.21460  0.11004  0.44546  1.0000
  O   O31       1.0  0.71461  0.61001  0.44544  1.0000
  O   O32       1.0  0.71462  0.11001  0.44545  1.0000
  O   O33       1.0  0.03629  0.86005  0.94542  1.0000
  O   O34       1.0  0.03626  0.36011  0.94546  1.0000
  O   O35       1.0  0.53626  0.86002  0.94543  1.0000
  O   O36       1.0  0.53629  0.36004  0.94544  1.0000
  O   O37       1.0  0.33169  0.89593  0.97581  1.0000
  O   O38       1.0  0.33170  0.39588  0.97578  1.0000
  O   O39       1.0  0.83170  0.89594  0.97584  1.0000
  O   O40       1.0  0.83167  0.39590  0.97577  1.0000
  O   O41       1.0  0.08135  0.24432  0.24889  1.0000
  O   O42       1.0  0.08133  0.74432  0.24891  1.0000
  O   O43       1.0  0.58133  0.24432  0.24895  1.0000
  O   O44       1.0  0.58134  0.74432  0.24892  1.0000
  O   O45       1.0  0.46461  0.14097  0.05563  1.0000
  O   O46       1.0  0.46461  0.64094  0.05560  1.0000
  O   O47       1.0  0.96460  0.14100  0.05557  1.0000
  O   O48       1.0  0.96460  0.64098  0.05557  1.0000
  O   O49       1.0  0.16917  0.10499  0.02518  1.0000
  O   O50       1.0  0.16919  0.60507  0.02519  1.0000
  O   O51       1.0  0.66916  0.10507  0.02523  1.0000
  O   O52       1.0  0.66918  0.60505  0.02521  1.0000
  O   O53       1.0  0.16955  0.49433  0.74888  1.0000
  O   O54       1.0  0.16952  0.99432  0.74889  1.0000
  O   O55       1.0  0.66954  0.49432  0.74894  1.0000
  O   O56       1.0  0.66952  0.99433  0.74893  1.0000
  O   O57       1.0  0.18013  0.74623  0.72393  1.0000
  O   O58       1.0  0.18015  0.24625  0.72400  1.0000
  O   O59       1.0  0.68009  0.74621  0.72398  1.0000
  O   O60       1.0  0.68016  0.24623  0.72403  1.0000
  O   O61       1.0  0.41918  0.64597  0.47580  1.0000
  O   O62       1.0  0.41917  0.14597  0.47583  1.0000
  O   O63       1.0  0.91917  0.64603  0.47585  1.0000
  O   O64       1.0  0.91921  0.14594  0.47586  1.0000
