data_image0
_chemical_formula_structural       Ba16Ta8Bi8O48
_chemical_formula_sum              "Ba16 Ta8 Bi8 O48"
_cell_length_a       12.1184
_cell_length_b       10.4965
_cell_length_c       10.5551
_cell_angle_alpha    108.888
_cell_angle_beta     89.9982
_cell_angle_gamma    89.9974

_space_group_name_H-M_alt    "P 1"
_space_group_IT_number       1

loop_
  _space_group_symop_operation_xyz
  'x, y, z'

loop_
  _atom_site_type_symbol
  _atom_site_label
  _atom_site_symmetry_multiplicity
  _atom_site_fract_x
  _atom_site_fract_y
  _atom_site_fract_z
  _atom_site_occupancy
  Ba  Ba1       1.0  0.25028  0.87431  0.62324  1.0000
  Ba  Ba2       1.0  0.00037  0.87433  0.12328  1.0000
  Ba  Ba3       1.0  0.00044  0.37433  0.62321  1.0000
  Ba  Ba4       1.0  0.75040  0.87429  0.62317  1.0000
  Ba  Ba5       1.0  0.50037  0.87426  0.12315  1.0000
  Ba  Ba6       1.0  0.50050  0.37430  0.62322  1.0000
  Ba  Ba7       1.0  0.25033  0.37430  0.12320  1.0000
  Ba  Ba8       1.0  0.75037  0.37430  0.12314  1.0000
  Ba  Ba9       1.0  0.25035  0.62680  0.87776  1.0000
  Ba  Ba10      1.0  0.00038  0.62694  0.37776  1.0000
  Ba  Ba11      1.0  0.00037  0.12695  0.87777  1.0000
  Ba  Ba12      1.0  0.75038  0.62692  0.87772  1.0000
  Ba  Ba13      1.0  0.50037  0.62694  0.37776  1.0000
  Ba  Ba14      1.0  0.50038  0.12691  0.87777  1.0000
  Ba  Ba15      1.0  0.25037  0.12693  0.37768  1.0000
  Ba  Ba16      1.0  0.75037  0.12684  0.37768  1.0000
  Ta  Ta1       1.0  0.25039  0.50062  0.50045  1.0000
  Ta  Ta2       1.0  0.00039  0.50063  0.00050  1.0000
  Ta  Ta3       1.0  0.00037  0.00058  0.50049  1.0000
  Ta  Ta4       1.0  0.75038  0.50060  0.50046  1.0000
  Ta  Ta5       1.0  0.50037  0.50057  0.00049  1.0000
  Ta  Ta6       1.0  0.50038  0.00056  0.50043  1.0000
  Ta  Ta7       1.0  0.25037  0.00063  0.00046  1.0000
  Ta  Ta8       1.0  0.75038  0.00055  0.00047  1.0000
  Bi  Bi1       1.0  0.25039  0.25056  0.75040  1.0000
  Bi  Bi2       1.0  0.00035  0.25063  0.25054  1.0000
  Bi  Bi3       1.0  0.00038  0.75063  0.75054  1.0000
  Bi  Bi4       1.0  0.75041  0.25059  0.75043  1.0000
  Bi  Bi5       1.0  0.50036  0.25058  0.25046  1.0000
  Bi  Bi6       1.0  0.50037  0.75057  0.75045  1.0000
  Bi  Bi7       1.0  0.25041  0.75062  0.25045  1.0000
  Bi  Bi8       1.0  0.75033  0.75057  0.25044  1.0000
  O   O1        1.0  0.13425  0.63033  0.59890  1.0000
  O   O2        1.0  0.88431  0.63040  0.09894  1.0000
  O   O3        1.0  0.88428  0.13039  0.59903  1.0000
  O   O4        1.0  0.63420  0.63023  0.59878  1.0000
  O   O5        1.0  0.38428  0.63042  0.09894  1.0000
  O   O6        1.0  0.38427  0.13024  0.59896  1.0000
  O   O7        1.0  0.13429  0.13034  0.09895  1.0000
  O   O8        1.0  0.63415  0.13021  0.09875  1.0000
  O   O9        1.0  0.36654  0.87089  0.90208  1.0000
  O   O10       1.0  0.11643  0.87083  0.40197  1.0000
  O   O11       1.0  0.11646  0.37080  0.90204  1.0000
  O   O12       1.0  0.86663  0.87087  0.90224  1.0000
  O   O13       1.0  0.61648  0.87082  0.40197  1.0000
  O   O14       1.0  0.61652  0.37087  0.90213  1.0000
  O   O15       1.0  0.36648  0.37086  0.40192  1.0000
  O   O16       1.0  0.86663  0.37095  0.40211  1.0000
  O   O17       1.0  0.36654  0.63025  0.59890  1.0000
  O   O18       1.0  0.11662  0.63018  0.09886  1.0000
  O   O19       1.0  0.11658  0.13026  0.59884  1.0000
  O   O20       1.0  0.86652  0.63028  0.59899  1.0000
  O   O21       1.0  0.61653  0.63022  0.09902  1.0000
  O   O22       1.0  0.61655  0.13026  0.59873  1.0000
  O   O23       1.0  0.36654  0.13036  0.09886  1.0000
  O   O24       1.0  0.86647  0.13022  0.09914  1.0000
  O   O25       1.0  0.25037  0.08614  0.85653  1.0000
  O   O26       1.0  0.00033  0.08623  0.35663  1.0000
  O   O27       1.0  0.00047  0.58622  0.85662  1.0000
  O   O28       1.0  0.75058  0.08615  0.85661  1.0000
  O   O29       1.0  0.50027  0.08604  0.35648  1.0000
  O   O30       1.0  0.50047  0.58614  0.85659  1.0000
  O   O31       1.0  0.25039  0.58615  0.35654  1.0000
  O   O32       1.0  0.75043  0.58607  0.35651  1.0000
  O   O33       1.0  0.13423  0.87093  0.90205  1.0000
  O   O34       1.0  0.88415  0.87097  0.40216  1.0000
  O   O35       1.0  0.88420  0.37099  0.90204  1.0000
  O   O36       1.0  0.63434  0.87084  0.90186  1.0000
  O   O37       1.0  0.38418  0.87091  0.40204  1.0000
  O   O38       1.0  0.38416  0.37102  0.90203  1.0000
  O   O39       1.0  0.13418  0.37095  0.40211  1.0000
  O   O40       1.0  0.63434  0.37076  0.40198  1.0000
  O   O41       1.0  0.25039  0.41498  0.64432  1.0000
  O   O42       1.0  0.00026  0.41514  0.14445  1.0000
  O   O43       1.0  0.00041  0.91511  0.64446  1.0000
  O   O44       1.0  0.75033  0.41502  0.64439  1.0000
  O   O45       1.0  0.50023  0.41496  0.14436  1.0000
  O   O46       1.0  0.50045  0.91494  0.64429  1.0000
  O   O47       1.0  0.25041  0.91513  0.14442  1.0000
  O   O48       1.0  0.75017  0.91495  0.14437  1.0000
