data_image0
_chemical_formula_structural       K16Na16Ti16O48
_chemical_formula_sum              "K16 Na16 Ti16 O48"
_cell_length_a       10.9625
_cell_length_b       11.4891
_cell_length_c       10.9222
_cell_angle_alpha    82.6155
_cell_angle_beta     90.0032
_cell_angle_gamma    89.9954

_space_group_name_H-M_alt    "P 1"
_space_group_IT_number       1

loop_
  _space_group_symop_operation_xyz
  'x, y, z'

loop_
  _atom_site_type_symbol
  _atom_site_label
  _atom_site_symmetry_multiplicity
  _atom_site_fract_x
  _atom_site_fract_y
  _atom_site_fract_z
  _atom_site_occupancy
  K   K1        1.0  0.23775  0.25058  0.12525  1.0000
  K   K2        1.0  0.23759  0.25025  0.62567  1.0000
  K   K3        1.0  0.73734  0.50062  0.12536  1.0000
  K   K4        1.0  0.73743  0.50025  0.62563  1.0000
  K   K5        1.0  0.23768  0.75031  0.12549  1.0000
  K   K6        1.0  0.23726  0.75070  0.62514  1.0000
  K   K7        1.0  0.73748  0.00015  0.12560  1.0000
  K   K8        1.0  0.73720  0.00048  0.62515  1.0000
  K   K9        1.0  0.76359  0.25038  0.37538  1.0000
  K   K10       1.0  0.76373  0.25038  0.87530  1.0000
  K   K11       1.0  0.26366  0.50009  0.37549  1.0000
  K   K12       1.0  0.26365  0.50027  0.87536  1.0000
  K   K13       1.0  0.76351  0.75046  0.37549  1.0000
  K   K14       1.0  0.76348  0.75031  0.87551  1.0000
  K   K15       1.0  0.26364  0.00050  0.37528  1.0000
  K   K16       1.0  0.26324  0.00055  0.87547  1.0000
  Na  Na1       1.0  0.92246  0.25010  0.12602  1.0000
  Na  Na2       1.0  0.92249  0.25044  0.62517  1.0000
  Na  Na3       1.0  0.42261  0.50046  0.12535  1.0000
  Na  Na4       1.0  0.42237  0.50025  0.62597  1.0000
  Na  Na5       1.0  0.92243  0.75019  0.12575  1.0000
  Na  Na6       1.0  0.92236  0.75039  0.62584  1.0000
  Na  Na7       1.0  0.42248  0.00016  0.12604  1.0000
  Na  Na8       1.0  0.42234  0.00039  0.62585  1.0000
  Na  Na9       1.0  0.07838  0.25037  0.37560  1.0000
  Na  Na10      1.0  0.07828  0.25030  0.87602  1.0000
  Na  Na11      1.0  0.57836  0.50033  0.37580  1.0000
  Na  Na12      1.0  0.57847  0.50041  0.87542  1.0000
  Na  Na13      1.0  0.07840  0.75028  0.37546  1.0000
  Na  Na14      1.0  0.07830  0.75029  0.87561  1.0000
  Na  Na15      1.0  0.57831  0.00028  0.37580  1.0000
  Na  Na16      1.0  0.57834  0.00035  0.87538  1.0000
  Ti  Ti1       1.0  0.44720  0.25045  0.37538  1.0000
  Ti  Ti2       1.0  0.44740  0.25038  0.87548  1.0000
  Ti  Ti3       1.0  0.94723  0.50052  0.37544  1.0000
  Ti  Ti4       1.0  0.94729  0.50038  0.87549  1.0000
  Ti  Ti5       1.0  0.44728  0.75039  0.37547  1.0000
  Ti  Ti6       1.0  0.44716  0.75045  0.87544  1.0000
  Ti  Ti7       1.0  0.94731  0.00040  0.37544  1.0000
  Ti  Ti8       1.0  0.94718  0.00046  0.87536  1.0000
  Ti  Ti9       1.0  0.55382  0.25032  0.12548  1.0000
  Ti  Ti10      1.0  0.55371  0.25042  0.62536  1.0000
  Ti  Ti11      1.0  0.05379  0.50027  0.12549  1.0000
  Ti  Ti12      1.0  0.05365  0.50049  0.62545  1.0000
  Ti  Ti13      1.0  0.55373  0.75036  0.12544  1.0000
  Ti  Ti14      1.0  0.55360  0.75043  0.62549  1.0000
  Ti  Ti15      1.0  0.05372  0.00033  0.12540  1.0000
  Ti  Ti16      1.0  0.05372  0.00050  0.62543  1.0000
  O   O1        1.0  0.97576  0.39233  0.24864  1.0000
  O   O2        1.0  0.97571  0.39236  0.74856  1.0000
  O   O3        1.0  0.47574  0.64237  0.24855  1.0000
  O   O4        1.0  0.47584  0.64235  0.74863  1.0000
  O   O5        1.0  0.97565  0.89233  0.24856  1.0000
  O   O6        1.0  0.97577  0.89243  0.74852  1.0000
  O   O7        1.0  0.47570  0.14232  0.24860  1.0000
  O   O8        1.0  0.47566  0.14240  0.74852  1.0000
  O   O9        1.0  0.02509  0.39246  0.49855  1.0000
  O   O10       1.0  0.02511  0.39224  0.99867  1.0000
  O   O11       1.0  0.52508  0.64236  0.49866  1.0000
  O   O12       1.0  0.52514  0.64238  0.99852  1.0000
  O   O13       1.0  0.02528  0.89235  0.49858  1.0000
  O   O14       1.0  0.02488  0.89227  0.99860  1.0000
  O   O15       1.0  0.52496  0.14233  0.49857  1.0000
  O   O16       1.0  0.52515  0.14221  0.99863  1.0000
  O   O17       1.0  0.97589  0.10847  0.00229  1.0000
  O   O18       1.0  0.97583  0.10851  0.50226  1.0000
  O   O19       1.0  0.47612  0.35848  0.00223  1.0000
  O   O20       1.0  0.47580  0.35853  0.50225  1.0000
  O   O21       1.0  0.97587  0.60838  0.00233  1.0000
  O   O22       1.0  0.97573  0.60861  0.50227  1.0000
  O   O23       1.0  0.47571  0.85843  0.00235  1.0000
  O   O24       1.0  0.47560  0.85849  0.50233  1.0000
  O   O25       1.0  0.02537  0.10838  0.25231  1.0000
  O   O26       1.0  0.02517  0.10857  0.75226  1.0000
  O   O27       1.0  0.52511  0.35845  0.25222  1.0000
  O   O28       1.0  0.52537  0.35843  0.75229  1.0000
  O   O29       1.0  0.02516  0.60846  0.25223  1.0000
  O   O30       1.0  0.02509  0.60848  0.75233  1.0000
  O   O31       1.0  0.52543  0.85840  0.25240  1.0000
  O   O32       1.0  0.52494  0.85850  0.75229  1.0000
  O   O33       1.0  0.71577  0.25010  0.12563  1.0000
  O   O34       1.0  0.71571  0.25027  0.62522  1.0000
  O   O35       1.0  0.21581  0.50013  0.12554  1.0000
  O   O36       1.0  0.21563  0.50048  0.62543  1.0000
  O   O37       1.0  0.71573  0.75017  0.12545  1.0000
  O   O38       1.0  0.71559  0.75054  0.62552  1.0000
  O   O39       1.0  0.21570  0.00025  0.12531  1.0000
  O   O40       1.0  0.21572  0.00053  0.62549  1.0000
  O   O41       1.0  0.28523  0.25054  0.37538  1.0000
  O   O42       1.0  0.28538  0.25056  0.87554  1.0000
  O   O43       1.0  0.78521  0.50047  0.37547  1.0000
  O   O44       1.0  0.78528  0.50057  0.87542  1.0000
  O   O45       1.0  0.28530  0.75043  0.37531  1.0000
  O   O46       1.0  0.28515  0.75036  0.87531  1.0000
  O   O47       1.0  0.78532  0.00055  0.37544  1.0000
  O   O48       1.0  0.78517  0.00062  0.87531  1.0000
