data_image0
_chemical_formula_structural       Y16Hf16O56
_chemical_formula_sum              "Y16 Hf16 O56"
_cell_length_a       10.431
_cell_length_b       10.4311
_cell_length_c       10.431
_cell_angle_alpha    90.0003
_cell_angle_beta     89.9989
_cell_angle_gamma    89.9993

_space_group_name_H-M_alt    "P 1"
_space_group_IT_number       1

loop_
  _space_group_symop_operation_xyz
  'x, y, z'

loop_
  _atom_site_type_symbol
  _atom_site_label
  _atom_site_symmetry_multiplicity
  _atom_site_fract_x
  _atom_site_fract_y
  _atom_site_fract_z
  _atom_site_occupancy
  Y   Y1        1.0  0.12569  0.12530  0.12542  1.0000
  Y   Y2        1.0  0.62550  0.62563  0.12547  1.0000
  Y   Y3        1.0  0.62527  0.12552  0.62554  1.0000
  Y   Y4        1.0  0.12539  0.62530  0.62554  1.0000
  Y   Y5        1.0  0.37535  0.12536  0.37563  1.0000
  Y   Y6        1.0  0.87536  0.62545  0.37556  1.0000
  Y   Y7        1.0  0.87542  0.12549  0.87533  1.0000
  Y   Y8        1.0  0.37548  0.62534  0.87530  1.0000
  Y   Y9        1.0  0.37553  0.37540  0.12548  1.0000
  Y   Y10       1.0  0.87548  0.87565  0.12560  1.0000
  Y   Y11       1.0  0.87533  0.37546  0.62536  1.0000
  Y   Y12       1.0  0.37531  0.87540  0.62533  1.0000
  Y   Y13       1.0  0.12550  0.37563  0.37516  1.0000
  Y   Y14       1.0  0.62557  0.87562  0.37542  1.0000
  Y   Y15       1.0  0.62542  0.37557  0.87546  1.0000
  Y   Y16       1.0  0.12529  0.87537  0.87547  1.0000
  Hf  Hf1       1.0  0.37553  0.62559  0.37544  1.0000
  Hf  Hf2       1.0  0.87544  0.12541  0.37542  1.0000
  Hf  Hf3       1.0  0.87538  0.62538  0.87555  1.0000
  Hf  Hf4       1.0  0.37538  0.12540  0.87545  1.0000
  Hf  Hf5       1.0  0.37546  0.37546  0.62537  1.0000
  Hf  Hf6       1.0  0.87536  0.87547  0.62549  1.0000
  Hf  Hf7       1.0  0.87534  0.37548  0.12550  1.0000
  Hf  Hf8       1.0  0.37543  0.87547  0.12552  1.0000
  Hf  Hf9       1.0  0.62545  0.62541  0.62547  1.0000
  Hf  Hf10      1.0  0.12549  0.12557  0.62542  1.0000
  Hf  Hf11      1.0  0.12547  0.62546  0.12546  1.0000
  Hf  Hf12      1.0  0.62537  0.12550  0.12542  1.0000
  Hf  Hf13      1.0  0.62552  0.37548  0.37546  1.0000
  Hf  Hf14      1.0  0.12539  0.87547  0.37555  1.0000
  Hf  Hf15      1.0  0.12546  0.37541  0.87555  1.0000
  Hf  Hf16      1.0  0.62547  0.87547  0.87545  1.0000
  O   O1        1.0  0.53807  0.75032  0.75057  1.0000
  O   O2        1.0  0.03805  0.25057  0.75038  1.0000
  O   O3        1.0  0.03813  0.75033  0.25066  1.0000
  O   O4        1.0  0.53808  0.25064  0.25041  1.0000
  O   O5        1.0  0.50041  0.50043  0.28820  1.0000
  O   O6        1.0  0.00028  0.00026  0.28782  1.0000
  O   O7        1.0  0.00047  0.50049  0.78810  1.0000
  O   O8        1.0  0.50042  0.00043  0.78790  1.0000
  O   O9        1.0  0.50067  0.28788  0.50060  1.0000
  O   O10       1.0  0.00050  0.78799  0.50065  1.0000
  O   O11       1.0  0.00022  0.28816  0.00034  1.0000
  O   O12       1.0  0.50032  0.78829  0.00038  1.0000
  O   O13       1.0  0.75054  0.96311  0.75056  1.0000
  O   O14       1.0  0.25040  0.46286  0.75040  1.0000
  O   O15       1.0  0.25031  0.96297  0.25047  1.0000
  O   O16       1.0  0.75058  0.46325  0.25065  1.0000
  O   O17       1.0  0.28819  0.50066  0.50052  1.0000
  O   O18       1.0  0.78784  0.00037  0.50037  1.0000
  O   O19       1.0  0.78773  0.50047  0.00051  1.0000
  O   O20       1.0  0.28792  0.00052  0.00062  1.0000
  O   O21       1.0  0.50054  0.50033  0.71304  1.0000
  O   O22       1.0  0.00041  0.00053  0.71270  1.0000
  O   O23       1.0  0.00056  0.50034  0.21283  1.0000
  O   O24       1.0  0.50025  0.00066  0.21311  1.0000
  O   O25       1.0  0.75051  0.53784  0.75043  1.0000
  O   O26       1.0  0.25030  0.03800  0.75061  1.0000
  O   O27       1.0  0.25041  0.53807  0.25061  1.0000
  O   O28       1.0  0.75032  0.03796  0.25045  1.0000
  O   O29       1.0  0.50038  0.71303  0.50064  1.0000
  O   O30       1.0  0.00054  0.21264  0.50034  1.0000
  O   O31       1.0  0.00039  0.71301  0.00057  1.0000
  O   O32       1.0  0.50046  0.21297  0.00036  1.0000
  O   O33       1.0  0.75044  0.75039  0.53800  1.0000
  O   O34       1.0  0.25054  0.25055  0.53777  1.0000
  O   O35       1.0  0.25040  0.75053  0.03811  1.0000
  O   O36       1.0  0.75031  0.25057  0.03814  1.0000
  O   O37       1.0  0.00041  0.00059  0.00034  1.0000
  O   O38       1.0  0.50039  0.50057  0.00055  1.0000
  O   O39       1.0  0.50044  0.00039  0.50051  1.0000
  O   O40       1.0  0.00048  0.50034  0.50043  1.0000
  O   O41       1.0  0.96262  0.75048  0.75063  1.0000
  O   O42       1.0  0.46265  0.25034  0.75040  1.0000
  O   O43       1.0  0.46324  0.75046  0.25042  1.0000
  O   O44       1.0  0.96282  0.25039  0.25040  1.0000
  O   O45       1.0  0.71299  0.50048  0.50048  1.0000
  O   O46       1.0  0.21324  0.00051  0.50049  1.0000
  O   O47       1.0  0.21301  0.50045  0.00051  1.0000
  O   O48       1.0  0.71289  0.00046  0.00050  1.0000
  O   O49       1.0  0.75028  0.75031  0.96295  1.0000
  O   O50       1.0  0.25039  0.25041  0.96311  1.0000
  O   O51       1.0  0.25050  0.75056  0.46284  1.0000
  O   O52       1.0  0.75062  0.25053  0.46294  1.0000
  O   O53       1.0  0.25047  0.25044  0.25049  1.0000
  O   O54       1.0  0.75059  0.75058  0.25050  1.0000
  O   O55       1.0  0.75033  0.25054  0.75043  1.0000
  O   O56       1.0  0.25032  0.75037  0.75045  1.0000
