data_image0
_chemical_formula_structural       Cs12In36O60
_chemical_formula_sum              "Cs12 In36 O60"
_cell_length_a       10.0928
_cell_length_b       10.1464
_cell_length_c       16.5904
_cell_angle_alpha    89.9944
_cell_angle_beta     90.0073
_cell_angle_gamma    90.0015

_space_group_name_H-M_alt    "P 1"
_space_group_IT_number       1

loop_
  _space_group_symop_operation_xyz
  'x, y, z'

loop_
  _atom_site_type_symbol
  _atom_site_label
  _atom_site_symmetry_multiplicity
  _atom_site_fract_x
  _atom_site_fract_y
  _atom_site_fract_z
  _atom_site_occupancy
  Cs  Cs1       1.0  0.25037  0.53080  0.12099  1.0000
  Cs  Cs2       1.0  0.58376  0.53060  0.12071  1.0000
  Cs  Cs3       1.0  0.91707  0.53042  0.12094  1.0000
  Cs  Cs4       1.0  0.08381  0.97054  0.62082  1.0000
  Cs  Cs5       1.0  0.41716  0.96998  0.62090  1.0000
  Cs  Cs6       1.0  0.75051  0.97043  0.62107  1.0000
  Cs  Cs7       1.0  0.25044  0.03083  0.37972  1.0000
  Cs  Cs8       1.0  0.58373  0.03058  0.37981  1.0000
  Cs  Cs9       1.0  0.91703  0.03083  0.37976  1.0000
  Cs  Cs10      1.0  0.08387  0.47025  0.87980  1.0000
  Cs  Cs11      1.0  0.41730  0.47016  0.87953  1.0000
  Cs  Cs12      1.0  0.75058  0.47009  0.87974  1.0000
  In  In1       1.0  0.25050  0.18196  0.18145  1.0000
  In  In2       1.0  0.58378  0.18172  0.18150  1.0000
  In  In3       1.0  0.91714  0.18174  0.18146  1.0000
  In  In4       1.0  0.25057  0.68180  0.31921  1.0000
  In  In5       1.0  0.58378  0.68169  0.31913  1.0000
  In  In6       1.0  0.91726  0.68178  0.31913  1.0000
  In  In7       1.0  0.08376  0.64547  0.48917  1.0000
  In  In8       1.0  0.41707  0.64544  0.48916  1.0000
  In  In9       1.0  0.75044  0.64559  0.48913  1.0000
  In  In10      1.0  0.08365  0.14553  0.01153  1.0000
  In  In11      1.0  0.41715  0.14548  0.01145  1.0000
  In  In12      1.0  0.75037  0.14545  0.01151  1.0000
  In  In13      1.0  0.08395  0.89070  0.16390  1.0000
  In  In14      1.0  0.41719  0.89071  0.16397  1.0000
  In  In15      1.0  0.75061  0.89061  0.16406  1.0000
  In  In16      1.0  0.25041  0.35530  0.51147  1.0000
  In  In17      1.0  0.58382  0.35539  0.51145  1.0000
  In  In18      1.0  0.91714  0.35553  0.51142  1.0000
  In  In19      1.0  0.08371  0.31915  0.68146  1.0000
  In  In20      1.0  0.41708  0.31904  0.68138  1.0000
  In  In21      1.0  0.75041  0.31912  0.68143  1.0000
  In  In22      1.0  0.08367  0.81911  0.81913  1.0000
  In  In23      1.0  0.41706  0.81902  0.81920  1.0000
  In  In24      1.0  0.75038  0.81904  0.81923  1.0000
  In  In25      1.0  0.25040  0.61019  0.66398  1.0000
  In  In26      1.0  0.58370  0.61022  0.66393  1.0000
  In  In27      1.0  0.91707  0.61031  0.66399  1.0000
  In  In28      1.0  0.25037  0.11016  0.83668  1.0000
  In  In29      1.0  0.58379  0.11016  0.83668  1.0000
  In  In30      1.0  0.91718  0.11009  0.83679  1.0000
  In  In31      1.0  0.25044  0.85538  0.98912  1.0000
  In  In32      1.0  0.58378  0.85535  0.98917  1.0000
  In  In33      1.0  0.91711  0.85532  0.98914  1.0000
  In  In34      1.0  0.08379  0.39082  0.33668  1.0000
  In  In35      1.0  0.41721  0.39065  0.33678  1.0000
  In  In36      1.0  0.75052  0.39065  0.33657  1.0000
  O   O1        1.0  0.08375  0.69514  0.71729  1.0000
  O   O2        1.0  0.41706  0.69498  0.71736  1.0000
  O   O3        1.0  0.75032  0.69513  0.71734  1.0000
  O   O4        1.0  0.08385  0.26986  0.11343  1.0000
  O   O5        1.0  0.41720  0.26976  0.11333  1.0000
  O   O6        1.0  0.75051  0.26970  0.11340  1.0000
  O   O7        1.0  0.08376  0.77929  0.05543  1.0000
  O   O8        1.0  0.41714  0.77932  0.05553  1.0000
  O   O9        1.0  0.75058  0.77937  0.05551  1.0000
  O   O10       1.0  0.25031  0.23107  0.61341  1.0000
  O   O11       1.0  0.58383  0.23109  0.61337  1.0000
  O   O12       1.0  0.91712  0.23136  0.61337  1.0000
  O   O13       1.0  0.08363  0.97785  0.92389  1.0000
  O   O14       1.0  0.41704  0.97771  0.92395  1.0000
  O   O15       1.0  0.75038  0.97772  0.92404  1.0000
  O   O16       1.0  0.25042  0.22165  0.94520  1.0000
  O   O17       1.0  0.58381  0.22162  0.94511  1.0000
  O   O18       1.0  0.91702  0.22173  0.94519  1.0000
  O   O19       1.0  0.25052  0.30582  0.28337  1.0000
  O   O20       1.0  0.58384  0.30572  0.28330  1.0000
  O   O21       1.0  0.91721  0.30579  0.28325  1.0000
  O   O22       1.0  0.08396  0.56721  0.27236  1.0000
  O   O23       1.0  0.41713  0.56701  0.27242  1.0000
  O   O24       1.0  0.75055  0.56711  0.27239  1.0000
  O   O25       1.0  0.25055  0.80600  0.21745  1.0000
  O   O26       1.0  0.58384  0.80563  0.21726  1.0000
  O   O27       1.0  0.91733  0.80586  0.21735  1.0000
  O   O28       1.0  0.25054  0.43375  0.72817  1.0000
  O   O29       1.0  0.58366  0.43371  0.72808  1.0000
  O   O30       1.0  0.91701  0.43384  0.72817  1.0000
  O   O31       1.0  0.08389  0.76975  0.38727  1.0000
  O   O32       1.0  0.41721  0.76964  0.38724  1.0000
  O   O33       1.0  0.75048  0.76970  0.38714  1.0000
  O   O34       1.0  0.25044  0.93372  0.77245  1.0000
  O   O35       1.0  0.58380  0.93369  0.77251  1.0000
  O   O36       1.0  0.91710  0.93373  0.77247  1.0000
  O   O37       1.0  0.08367  0.47775  0.57671  1.0000
  O   O38       1.0  0.41707  0.47770  0.57662  1.0000
  O   O39       1.0  0.75044  0.47775  0.57658  1.0000
  O   O40       1.0  0.08372  0.19524  0.78340  1.0000
  O   O41       1.0  0.41710  0.19493  0.78324  1.0000
  O   O42       1.0  0.75053  0.19496  0.78331  1.0000
  O   O43       1.0  0.25043  0.73129  0.88720  1.0000
  O   O44       1.0  0.58373  0.73111  0.88730  1.0000
  O   O45       1.0  0.91721  0.73116  0.88725  1.0000
  O   O46       1.0  0.25032  0.02315  0.07669  1.0000
  O   O47       1.0  0.58379  0.02322  0.07660  1.0000
  O   O48       1.0  0.91718  0.02317  0.07668  1.0000
  O   O49       1.0  0.08377  0.27923  0.44509  1.0000
  O   O50       1.0  0.41707  0.27912  0.44519  1.0000
  O   O51       1.0  0.75048  0.27938  0.44505  1.0000
  O   O52       1.0  0.25033  0.52298  0.42394  1.0000
  O   O53       1.0  0.58379  0.52300  0.42388  1.0000
  O   O54       1.0  0.91731  0.52324  0.42399  1.0000
  O   O55       1.0  0.25045  0.72152  0.55553  1.0000
  O   O56       1.0  0.58365  0.72147  0.55541  1.0000
  O   O57       1.0  0.91701  0.72161  0.55545  1.0000
  O   O58       1.0  0.08382  0.06711  0.22817  1.0000
  O   O59       1.0  0.41729  0.06712  0.22822  1.0000
  O   O60       1.0  0.75056  0.06701  0.22823  1.0000
