data_image0
_chemical_formula_structural       K12Y6Nb30O90
_chemical_formula_sum              "K12 Y6 Nb30 O90"
_cell_length_a       10.4064
_cell_length_b       15.3533
_cell_length_c       11.875
_cell_angle_alpha    90.0002
_cell_angle_beta     90.005
_cell_angle_gamma    90.0008

_space_group_name_H-M_alt    "P 1"
_space_group_IT_number       1

loop_
  _space_group_symop_operation_xyz
  'x, y, z'

loop_
  _atom_site_type_symbol
  _atom_site_label
  _atom_site_symmetry_multiplicity
  _atom_site_fract_x
  _atom_site_fract_y
  _atom_site_fract_z
  _atom_site_occupancy
  K   K1        1.0  0.50724  0.20059  0.99653  1.0000
  K   K2        1.0  0.49454  0.20056  0.32972  1.0000
  K   K3        1.0  0.49849  0.20050  0.66299  1.0000
  K   K4        1.0  0.00688  0.70047  0.00426  1.0000
  K   K5        1.0  0.99260  0.70052  0.33780  1.0000
  K   K6        1.0  0.00153  0.70044  0.67107  1.0000
  K   K7        1.0  0.50731  0.79995  0.99651  1.0000
  K   K8        1.0  0.49451  0.79999  0.32973  1.0000
  K   K9        1.0  0.49844  0.80007  0.66295  1.0000
  K   K10       1.0  0.00697  0.30009  0.00425  1.0000
  K   K11       1.0  0.99256  0.30003  0.33783  1.0000
  K   K12       1.0  0.00152  0.30009  0.67110  1.0000
  Y   Y1        1.0  0.00082  0.00087  0.00192  1.0000
  Y   Y2        1.0  0.00003  0.00089  0.33532  1.0000
  Y   Y3        1.0  0.00019  0.00089  0.66853  1.0000
  Y   Y4        1.0  0.50075  0.50089  0.99906  1.0000
  Y   Y5        1.0  0.50021  0.50089  0.33236  1.0000
  Y   Y6        1.0  0.50068  0.50086  0.66582  1.0000
  Nb  Nb1       1.0  0.18316  0.86959  0.17030  1.0000
  Nb  Nb2       1.0  0.18334  0.86935  0.50405  1.0000
  Nb  Nb3       1.0  0.19558  0.87297  0.83686  1.0000
  Nb  Nb4       1.0  0.69429  0.37243  0.16435  1.0000
  Nb  Nb5       1.0  0.68242  0.36911  0.49774  1.0000
  Nb  Nb6       1.0  0.69398  0.37254  0.83165  1.0000
  Nb  Nb7       1.0  0.18377  0.13153  0.17007  1.0000
  Nb  Nb8       1.0  0.18396  0.13167  0.50382  1.0000
  Nb  Nb9       1.0  0.19605  0.12811  0.83665  1.0000
  Nb  Nb10      1.0  0.69477  0.62860  0.16454  1.0000
  Nb  Nb11      1.0  0.68304  0.63196  0.49795  1.0000
  Nb  Nb12      1.0  0.69444  0.62857  0.83182  1.0000
  Nb  Nb13      1.0  0.80618  0.12863  0.16979  1.0000
  Nb  Nb14      1.0  0.80619  0.12851  0.50259  1.0000
  Nb  Nb15      1.0  0.81816  0.13203  0.83646  1.0000
  Nb  Nb16      1.0  0.31708  0.63157  0.16438  1.0000
  Nb  Nb17      1.0  0.30514  0.62818  0.49772  1.0000
  Nb  Nb18      1.0  0.31675  0.63163  0.83059  1.0000
  Nb  Nb19      1.0  0.80662  0.87243  0.16998  1.0000
  Nb  Nb20      1.0  0.80664  0.87262  0.50277  1.0000
  Nb  Nb21      1.0  0.81878  0.86903  0.83664  1.0000
  Nb  Nb22      1.0  0.31770  0.36955  0.16416  1.0000
  Nb  Nb23      1.0  0.30561  0.37291  0.49750  1.0000
  Nb  Nb24      1.0  0.31734  0.36940  0.83036  1.0000
  Nb  Nb25      1.0  0.49013  0.00015  0.15120  1.0000
  Nb  Nb26      1.0  0.48972  0.00014  0.48483  1.0000
  Nb  Nb27      1.0  0.51318  0.00014  0.81805  1.0000
  Nb  Nb28      1.0  0.01080  0.50012  0.18290  1.0000
  Nb  Nb29      1.0  0.98816  0.50015  0.51606  1.0000
  Nb  Nb30      1.0  0.01090  0.50013  0.84923  1.0000
  O   O1        1.0  0.12673  0.00026  0.16682  1.0000
  O   O2        1.0  0.12669  0.00027  0.50160  1.0000
  O   O3        1.0  0.12554  0.00034  0.83379  1.0000
  O   O4        1.0  0.62570  0.50028  0.16636  1.0000
  O   O5        1.0  0.62702  0.50025  0.50001  1.0000
  O   O6        1.0  0.62567  0.50030  0.83433  1.0000
  O   O7        1.0  0.49916  0.33608  0.16795  1.0000
  O   O8        1.0  0.50245  0.33567  0.50119  1.0000
  O   O9        1.0  0.49868  0.33597  0.83479  1.0000
  O   O10       1.0  0.00167  0.83603  0.16635  1.0000
  O   O11       1.0  0.00230  0.83596  0.49948  1.0000
  O   O12       1.0  0.99878  0.83564  0.83288  1.0000
  O   O13       1.0  0.36545  0.09397  0.16288  1.0000
  O   O14       1.0  0.36558  0.09408  0.49950  1.0000
  O   O15       1.0  0.36758  0.09194  0.83440  1.0000
  O   O16       1.0  0.86665  0.59213  0.16505  1.0000
  O   O17       1.0  0.86521  0.59443  0.50363  1.0000
  O   O18       1.0  0.86647  0.59196  0.83581  1.0000
  O   O19       1.0  0.49924  0.66387  0.16794  1.0000
  O   O20       1.0  0.50243  0.66432  0.50117  1.0000
  O   O21       1.0  0.49864  0.66401  0.83476  1.0000
  O   O22       1.0  0.00163  0.16395  0.16636  1.0000
  O   O23       1.0  0.00229  0.16400  0.49948  1.0000
  O   O24       1.0  0.99874  0.16432  0.83287  1.0000
  O   O25       1.0  0.87514  0.00030  0.16783  1.0000
  O   O26       1.0  0.87518  0.00032  0.49992  1.0000
  O   O27       1.0  0.87400  0.00022  0.83430  1.0000
  O   O28       1.0  0.37406  0.50027  0.16743  1.0000
  O   O29       1.0  0.37551  0.50033  0.50041  1.0000
  O   O30       1.0  0.37420  0.50026  0.83278  1.0000
  O   O31       1.0  0.16067  0.88498  0.99923  1.0000
  O   O32       1.0  0.16459  0.88562  0.33385  1.0000
  O   O33       1.0  0.16253  0.88505  0.66877  1.0000
  O   O34       1.0  0.65998  0.38455  0.00027  1.0000
  O   O35       1.0  0.66414  0.38518  0.33242  1.0000
  O   O36       1.0  0.66215  0.38506  0.66847  1.0000
  O   O37       1.0  0.83681  0.11576  0.00174  1.0000
  O   O38       1.0  0.84020  0.11616  0.33402  1.0000
  O   O39       1.0  0.83858  0.11572  0.66579  1.0000
  O   O40       1.0  0.33564  0.61520  0.00044  1.0000
  O   O41       1.0  0.33991  0.61589  0.33500  1.0000
  O   O42       1.0  0.33835  0.61573  0.66551  1.0000
  O   O43       1.0  0.63425  0.09223  0.16822  1.0000
  O   O44       1.0  0.63426  0.09214  0.49865  1.0000
  O   O45       1.0  0.63593  0.09448  0.83047  1.0000
  O   O46       1.0  0.13537  0.59407  0.17155  1.0000
  O   O47       1.0  0.13353  0.59202  0.49954  1.0000
  O   O48       1.0  0.13529  0.59411  0.83386  1.0000
  O   O49       1.0  0.16108  0.11584  0.99926  1.0000
  O   O50       1.0  0.16498  0.11516  0.33382  1.0000
  O   O51       1.0  0.16296  0.11574  0.66872  1.0000
  O   O52       1.0  0.66041  0.61630  0.00024  1.0000
  O   O53       1.0  0.66451  0.61562  0.33247  1.0000
  O   O54       1.0  0.66257  0.61576  0.66842  1.0000
  O   O55       1.0  0.25068  0.75045  0.16695  1.0000
  O   O56       1.0  0.25096  0.75025  0.50177  1.0000
  O   O57       1.0  0.25045  0.75059  0.83276  1.0000
  O   O58       1.0  0.75048  0.25036  0.16737  1.0000
  O   O59       1.0  0.75093  0.25020  0.49923  1.0000
  O   O60       1.0  0.75047  0.25059  0.83475  1.0000
  O   O61       1.0  0.36539  0.90649  0.16283  1.0000
  O   O62       1.0  0.36552  0.90640  0.49949  1.0000
  O   O63       1.0  0.36746  0.90857  0.83442  1.0000
  O   O64       1.0  0.86652  0.40836  0.16505  1.0000
  O   O65       1.0  0.86513  0.40605  0.50368  1.0000
  O   O66       1.0  0.86638  0.40857  0.83577  1.0000
  O   O67       1.0  0.83714  0.88502  0.00176  1.0000
  O   O68       1.0  0.84065  0.88466  0.33404  1.0000
  O   O69       1.0  0.83898  0.88510  0.66577  1.0000
  O   O70       1.0  0.33596  0.38558  0.00039  1.0000
  O   O71       1.0  0.34036  0.38493  0.33502  1.0000
  O   O72       1.0  0.33875  0.38506  0.66546  1.0000
  O   O73       1.0  0.50430  0.00022  0.99601  1.0000
  O   O74       1.0  0.49812  0.00024  0.32923  1.0000
  O   O75       1.0  0.50066  0.00025  0.66267  1.0000
  O   O76       1.0  0.00410  0.50021  0.00483  1.0000
  O   O77       1.0  0.99612  0.50026  0.33808  1.0000
  O   O78       1.0  0.00027  0.50026  0.67140  1.0000
  O   O79       1.0  0.63440  0.90827  0.16830  1.0000
  O   O80       1.0  0.63437  0.90842  0.49866  1.0000
  O   O81       1.0  0.63597  0.90596  0.83041  1.0000
  O   O82       1.0  0.13544  0.40639  0.17165  1.0000
  O   O83       1.0  0.13368  0.40852  0.49952  1.0000
  O   O84       1.0  0.13531  0.40633  0.83384  1.0000
  O   O85       1.0  0.25046  0.25034  0.16698  1.0000
  O   O86       1.0  0.25082  0.25053  0.50174  1.0000
  O   O87       1.0  0.25033  0.25016  0.83276  1.0000
  O   O88       1.0  0.75040  0.75036  0.16742  1.0000
  O   O89       1.0  0.75072  0.75057  0.49919  1.0000
  O   O90       1.0  0.75035  0.75016  0.83473  1.0000
