data_image0
_chemical_formula_structural       Li24Ti48O96
_chemical_formula_sum              "Li24 Ti48 O96"
_cell_length_a       10.2932
_cell_length_b       14.5437
_cell_length_c       11.8746
_cell_angle_alpha    89.9923
_cell_angle_beta     90.0049
_cell_angle_gamma    90.0226

_space_group_name_H-M_alt    "P 1"
_space_group_IT_number       1

loop_
  _space_group_symop_operation_xyz
  'x, y, z'

loop_
  _atom_site_type_symbol
  _atom_site_label
  _atom_site_symmetry_multiplicity
  _atom_site_fract_x
  _atom_site_fract_y
  _atom_site_fract_z
  _atom_site_occupancy
  Li  Li1       1.0  0.08371  0.04193  0.12556  1.0000
  Li  Li2       1.0  0.08388  0.04202  0.62560  1.0000
  Li  Li3       1.0  0.25060  0.37545  0.37539  1.0000
  Li  Li4       1.0  0.25046  0.37551  0.87550  1.0000
  Li  Li5       1.0  0.41706  0.70869  0.12556  1.0000
  Li  Li6       1.0  0.41723  0.70865  0.62541  1.0000
  Li  Li7       1.0  0.58378  0.04212  0.37524  1.0000
  Li  Li8       1.0  0.58362  0.04220  0.87534  1.0000
  Li  Li9       1.0  0.75044  0.37552  0.12540  1.0000
  Li  Li10      1.0  0.75048  0.37533  0.62542  1.0000
  Li  Li11      1.0  0.91691  0.70878  0.37534  1.0000
  Li  Li12      1.0  0.91696  0.70858  0.87535  1.0000
  Li  Li13      1.0  0.58395  0.29200  0.87541  1.0000
  Li  Li14      1.0  0.58380  0.29198  0.37540  1.0000
  Li  Li15      1.0  0.75059  0.62530  0.12537  1.0000
  Li  Li16      1.0  0.75040  0.62537  0.62561  1.0000
  Li  Li17      1.0  0.91727  0.95853  0.87543  1.0000
  Li  Li18      1.0  0.91697  0.95869  0.37542  1.0000
  Li  Li19      1.0  0.08396  0.29195  0.12542  1.0000
  Li  Li20      1.0  0.08401  0.29217  0.62519  1.0000
  Li  Li21      1.0  0.25061  0.62534  0.87532  1.0000
  Li  Li22      1.0  0.25065  0.62537  0.37543  1.0000
  Li  Li23      1.0  0.41736  0.95869  0.12546  1.0000
  Li  Li24      1.0  0.41717  0.95858  0.62555  1.0000
  Ti  Ti1       1.0  0.33392  0.16707  0.50037  1.0000
  Ti  Ti2       1.0  0.33381  0.16700  0.00038  1.0000
  Ti  Ti3       1.0  0.50047  0.50030  0.75052  1.0000
  Ti  Ti4       1.0  0.50059  0.50036  0.25045  1.0000
  Ti  Ti5       1.0  0.66696  0.83371  0.50048  1.0000
  Ti  Ti6       1.0  0.66724  0.83365  0.00038  1.0000
  Ti  Ti7       1.0  0.83383  0.16703  0.75045  1.0000
  Ti  Ti8       1.0  0.83391  0.16701  0.25035  1.0000
  Ti  Ti9       1.0  0.00045  0.50035  0.50046  1.0000
  Ti  Ti10      1.0  0.00044  0.50032  0.00047  1.0000
  Ti  Ti11      1.0  0.16723  0.83361  0.75048  1.0000
  Ti  Ti12      1.0  0.16705  0.83365  0.25051  1.0000
  Ti  Ti13      1.0  0.25049  0.00036  0.37542  1.0000
  Ti  Ti14      1.0  0.25052  0.00033  0.87548  1.0000
  Ti  Ti15      1.0  0.41715  0.33374  0.62546  1.0000
  Ti  Ti16      1.0  0.41707  0.33371  0.12535  1.0000
  Ti  Ti17      1.0  0.58409  0.66700  0.37548  1.0000
  Ti  Ti18      1.0  0.58388  0.66703  0.87527  1.0000
  Ti  Ti19      1.0  0.75036  0.00043  0.62529  1.0000
  Ti  Ti20      1.0  0.75041  0.00045  0.12526  1.0000
  Ti  Ti21      1.0  0.91707  0.33371  0.37525  1.0000
  Ti  Ti22      1.0  0.91727  0.33371  0.87531  1.0000
  Ti  Ti23      1.0  0.08395  0.66703  0.62540  1.0000
  Ti  Ti24      1.0  0.08409  0.66699  0.12526  1.0000
  Ti  Ti25      1.0  0.08383  0.16700  0.37543  1.0000
  Ti  Ti26      1.0  0.08379  0.16697  0.87537  1.0000
  Ti  Ti27      1.0  0.25053  0.50040  0.62540  1.0000
  Ti  Ti28      1.0  0.25048  0.50026  0.12544  1.0000
  Ti  Ti29      1.0  0.41721  0.83373  0.37530  1.0000
  Ti  Ti30      1.0  0.41718  0.83365  0.87559  1.0000
  Ti  Ti31      1.0  0.58380  0.16707  0.62537  1.0000
  Ti  Ti32      1.0  0.58381  0.16714  0.12537  1.0000
  Ti  Ti33      1.0  0.75056  0.50031  0.37551  1.0000
  Ti  Ti34      1.0  0.75046  0.50030  0.87555  1.0000
  Ti  Ti35      1.0  0.91718  0.83375  0.62528  1.0000
  Ti  Ti36      1.0  0.91715  0.83371  0.12544  1.0000
  Ti  Ti37      1.0  0.33390  0.16705  0.25046  1.0000
  Ti  Ti38      1.0  0.33376  0.16706  0.75038  1.0000
  Ti  Ti39      1.0  0.50052  0.50039  0.50049  1.0000
  Ti  Ti40      1.0  0.50041  0.50051  0.00047  1.0000
  Ti  Ti41      1.0  0.66716  0.83365  0.25036  1.0000
  Ti  Ti42      1.0  0.66719  0.83379  0.75042  1.0000
  Ti  Ti43      1.0  0.83402  0.16710  0.50055  1.0000
  Ti  Ti44      1.0  0.83386  0.16716  0.00046  1.0000
  Ti  Ti45      1.0  0.00057  0.50047  0.25051  1.0000
  Ti  Ti46      1.0  0.00034  0.50042  0.75040  1.0000
  Ti  Ti47      1.0  0.16720  0.83369  0.50045  1.0000
  Ti  Ti48      1.0  0.16699  0.83371  0.00043  1.0000
  O   O1        1.0  0.17553  0.08791  0.48814  1.0000
  O   O2        1.0  0.17543  0.08785  0.98814  1.0000
  O   O3        1.0  0.34213  0.42124  0.73808  1.0000
  O   O4        1.0  0.34222  0.42121  0.23811  1.0000
  O   O5        1.0  0.50874  0.75455  0.48811  1.0000
  O   O6        1.0  0.50897  0.75449  0.98818  1.0000
  O   O7        1.0  0.67541  0.08792  0.73804  1.0000
  O   O8        1.0  0.67548  0.08794  0.23802  1.0000
  O   O9        1.0  0.84223  0.42114  0.48814  1.0000
  O   O10       1.0  0.84213  0.42116  0.98809  1.0000
  O   O11       1.0  0.00879  0.75460  0.73807  1.0000
  O   O12       1.0  0.00882  0.75452  0.23803  1.0000
  O   O13       1.0  0.49215  0.24613  0.73813  1.0000
  O   O14       1.0  0.49218  0.24620  0.23809  1.0000
  O   O15       1.0  0.65884  0.57951  0.98816  1.0000
  O   O16       1.0  0.65897  0.57945  0.48820  1.0000
  O   O17       1.0  0.82556  0.91285  0.73801  1.0000
  O   O18       1.0  0.82549  0.91284  0.23802  1.0000
  O   O19       1.0  0.99226  0.24620  0.98808  1.0000
  O   O20       1.0  0.99227  0.24621  0.48805  1.0000
  O   O21       1.0  0.15885  0.57948  0.73809  1.0000
  O   O22       1.0  0.15897  0.57950  0.23808  1.0000
  O   O23       1.0  0.32552  0.91277  0.98820  1.0000
  O   O24       1.0  0.32561  0.91276  0.48807  1.0000
  O   O25       1.0  0.49220  0.24623  0.51272  1.0000
  O   O26       1.0  0.49212  0.24619  0.01264  1.0000
  O   O27       1.0  0.65889  0.57945  0.76278  1.0000
  O   O28       1.0  0.65898  0.57950  0.26278  1.0000
  O   O29       1.0  0.82539  0.91285  0.51268  1.0000
  O   O30       1.0  0.82557  0.91282  0.01266  1.0000
  O   O31       1.0  0.99223  0.24618  0.76265  1.0000
  O   O32       1.0  0.99226  0.24612  0.26269  1.0000
  O   O33       1.0  0.15885  0.57954  0.51265  1.0000
  O   O34       1.0  0.15893  0.57942  0.01269  1.0000
  O   O35       1.0  0.32559  0.91277  0.76288  1.0000
  O   O36       1.0  0.32549  0.91280  0.26275  1.0000
  O   O37       1.0  0.25029  0.23796  0.37534  1.0000
  O   O38       1.0  0.25013  0.23792  0.87535  1.0000
  O   O39       1.0  0.41698  0.57131  0.62546  1.0000
  O   O40       1.0  0.41683  0.57127  0.12550  1.0000
  O   O41       1.0  0.58355  0.90462  0.37533  1.0000
  O   O42       1.0  0.58354  0.90462  0.87542  1.0000
  O   O43       1.0  0.75021  0.23794  0.62540  1.0000
  O   O44       1.0  0.75028  0.23800  0.12543  1.0000
  O   O45       1.0  0.91691  0.57127  0.37545  1.0000
  O   O46       1.0  0.91685  0.57127  0.87547  1.0000
  O   O47       1.0  0.08364  0.90461  0.62545  1.0000
  O   O48       1.0  0.08356  0.90460  0.12539  1.0000
  O   O49       1.0  0.17551  0.08793  0.26276  1.0000
  O   O50       1.0  0.17540  0.08784  0.76274  1.0000
  O   O51       1.0  0.34217  0.42127  0.51272  1.0000
  O   O52       1.0  0.34208  0.42127  0.01268  1.0000
  O   O53       1.0  0.50885  0.75450  0.26276  1.0000
  O   O54       1.0  0.50876  0.75464  0.76275  1.0000
  O   O55       1.0  0.67545  0.08801  0.51266  1.0000
  O   O56       1.0  0.67539  0.08805  0.01265  1.0000
  O   O57       1.0  0.84214  0.42127  0.26272  1.0000
  O   O58       1.0  0.84206  0.42127  0.76275  1.0000
  O   O59       1.0  0.00882  0.75459  0.51270  1.0000
  O   O60       1.0  0.00876  0.75457  0.01269  1.0000
  O   O61       1.0  0.26709  0.24642  0.62535  1.0000
  O   O62       1.0  0.26710  0.24635  0.12536  1.0000
  O   O63       1.0  0.43373  0.57973  0.87536  1.0000
  O   O64       1.0  0.43388  0.57968  0.37544  1.0000
  O   O65       1.0  0.60039  0.91308  0.62540  1.0000
  O   O66       1.0  0.60045  0.91299  0.12534  1.0000
  O   O67       1.0  0.76717  0.24644  0.87538  1.0000
  O   O68       1.0  0.76717  0.24632  0.37539  1.0000
  O   O69       1.0  0.93374  0.57975  0.62534  1.0000
  O   O70       1.0  0.93384  0.57970  0.12541  1.0000
  O   O71       1.0  0.10045  0.91300  0.87537  1.0000
  O   O72       1.0  0.10040  0.91305  0.37539  1.0000
  O   O73       1.0  0.41742  0.09613  0.62543  1.0000
  O   O74       1.0  0.41746  0.09616  0.12542  1.0000
  O   O75       1.0  0.58398  0.42945  0.87553  1.0000
  O   O76       1.0  0.58409  0.42945  0.37551  1.0000
  O   O77       1.0  0.75075  0.76285  0.62544  1.0000
  O   O78       1.0  0.75086  0.76275  0.12541  1.0000
  O   O79       1.0  0.91735  0.09612  0.87548  1.0000
  O   O80       1.0  0.91744  0.09611  0.37544  1.0000
  O   O81       1.0  0.08409  0.42950  0.62547  1.0000
  O   O82       1.0  0.08407  0.42942  0.12551  1.0000
  O   O83       1.0  0.25078  0.76276  0.87555  1.0000
  O   O84       1.0  0.25079  0.76276  0.37540  1.0000
  O   O85       1.0  0.40063  0.08769  0.37541  1.0000
  O   O86       1.0  0.40051  0.08770  0.87538  1.0000
  O   O87       1.0  0.56726  0.42105  0.62550  1.0000
  O   O88       1.0  0.56720  0.42108  0.12537  1.0000
  O   O89       1.0  0.73389  0.75441  0.37546  1.0000
  O   O90       1.0  0.73389  0.75433  0.87536  1.0000
  O   O91       1.0  0.90060  0.08768  0.62547  1.0000
  O   O92       1.0  0.90052  0.08774  0.12539  1.0000
  O   O93       1.0  0.06724  0.42104  0.37545  1.0000
  O   O94       1.0  0.06725  0.42109  0.87541  1.0000
  O   O95       1.0  0.23395  0.75431  0.62543  1.0000
  O   O96       1.0  0.23390  0.75438  0.12542  1.0000
