data_image0
_chemical_formula_structural       Ba24Sr8Nb16O72
_chemical_formula_sum              "Ba24 Sr8 Nb16 O72"
_cell_length_a       12.2397
_cell_length_b       10.5995
_cell_length_c       15.5529
_cell_angle_alpha    89.9956
_cell_angle_beta     90.0029
_cell_angle_gamma    90.002

_space_group_name_H-M_alt    "P 1"
_space_group_IT_number       1

loop_
  _space_group_symop_operation_xyz
  'x, y, z'

loop_
  _atom_site_type_symbol
  _atom_site_label
  _atom_site_symmetry_multiplicity
  _atom_site_fract_x
  _atom_site_fract_y
  _atom_site_fract_z
  _atom_site_occupancy
  Ba  Ba1       1.0  0.00038  0.00055  0.25033  1.0000
  Ba  Ba2       1.0  0.25039  0.50035  0.25032  1.0000
  Ba  Ba3       1.0  0.50033  0.00054  0.25037  1.0000
  Ba  Ba4       1.0  0.75032  0.50050  0.25034  1.0000
  Ba  Ba5       1.0  0.00039  0.00042  0.75035  1.0000
  Ba  Ba6       1.0  0.25040  0.50053  0.75035  1.0000
  Ba  Ba7       1.0  0.50041  0.00044  0.75030  1.0000
  Ba  Ba8       1.0  0.75034  0.50047  0.75031  1.0000
  Ba  Ba9       1.0  0.25041  0.16709  0.12143  1.0000
  Ba  Ba10      1.0  0.50040  0.66730  0.12145  1.0000
  Ba  Ba11      1.0  0.75039  0.16714  0.12149  1.0000
  Ba  Ba12      1.0  0.00039  0.66714  0.12139  1.0000
  Ba  Ba13      1.0  0.25050  0.83378  0.62151  1.0000
  Ba  Ba14      1.0  0.50040  0.33377  0.62133  1.0000
  Ba  Ba15      1.0  0.75044  0.83376  0.62129  1.0000
  Ba  Ba16      1.0  0.00044  0.33388  0.62153  1.0000
  Ba  Ba17      1.0  0.25049  0.83376  0.87927  1.0000
  Ba  Ba18      1.0  0.50050  0.33378  0.87913  1.0000
  Ba  Ba19      1.0  0.75046  0.83386  0.87923  1.0000
  Ba  Ba20      1.0  0.00042  0.33378  0.87933  1.0000
  Ba  Ba21      1.0  0.25047  0.16723  0.37921  1.0000
  Ba  Ba22      1.0  0.50031  0.66726  0.37931  1.0000
  Ba  Ba23      1.0  0.75043  0.16707  0.37931  1.0000
  Ba  Ba24      1.0  0.00050  0.66716  0.37931  1.0000
  Sr  Sr1       1.0  0.00041  0.00038  0.00034  1.0000
  Sr  Sr2       1.0  0.25049  0.50040  0.00032  1.0000
  Sr  Sr3       1.0  0.50046  0.00058  0.00040  1.0000
  Sr  Sr4       1.0  0.75039  0.50041  0.00030  1.0000
  Sr  Sr5       1.0  0.00054  0.00055  0.50035  1.0000
  Sr  Sr6       1.0  0.25035  0.50048  0.50035  1.0000
  Sr  Sr7       1.0  0.50041  0.00039  0.50037  1.0000
  Sr  Sr8       1.0  0.75045  0.50048  0.50030  1.0000
  Nb  Nb1       1.0  0.25044  0.16713  0.84674  1.0000
  Nb  Nb2       1.0  0.50046  0.66716  0.84667  1.0000
  Nb  Nb3       1.0  0.75046  0.16710  0.84665  1.0000
  Nb  Nb4       1.0  0.00047  0.66710  0.84667  1.0000
  Nb  Nb5       1.0  0.25042  0.83385  0.34667  1.0000
  Nb  Nb6       1.0  0.50044  0.33384  0.34674  1.0000
  Nb  Nb7       1.0  0.75047  0.83379  0.34672  1.0000
  Nb  Nb8       1.0  0.00037  0.33376  0.34664  1.0000
  Nb  Nb9       1.0  0.25037  0.83380  0.15395  1.0000
  Nb  Nb10      1.0  0.50038  0.33391  0.15401  1.0000
  Nb  Nb11      1.0  0.75044  0.83379  0.15408  1.0000
  Nb  Nb12      1.0  0.00037  0.33381  0.15394  1.0000
  Nb  Nb13      1.0  0.25042  0.16710  0.65403  1.0000
  Nb  Nb14      1.0  0.50045  0.66703  0.65397  1.0000
  Nb  Nb15      1.0  0.75046  0.16715  0.65398  1.0000
  Nb  Nb16      1.0  0.00041  0.66720  0.65398  1.0000
  O   O1        1.0  0.15216  0.73817  0.25033  1.0000
  O   O2        1.0  0.40215  0.23811  0.25045  1.0000
  O   O3        1.0  0.65218  0.73807  0.25039  1.0000
  O   O4        1.0  0.90222  0.23800  0.25036  1.0000
  O   O5        1.0  0.27319  0.02098  0.75048  1.0000
  O   O6        1.0  0.52314  0.52100  0.75024  1.0000
  O   O7        1.0  0.77317  0.02108  0.75030  1.0000
  O   O8        1.0  0.02315  0.52105  0.75035  1.0000
  O   O9        1.0  0.12958  0.21741  0.75035  1.0000
  O   O10       1.0  0.37960  0.71748  0.75045  1.0000
  O   O11       1.0  0.62958  0.21751  0.75029  1.0000
  O   O12       1.0  0.87957  0.71747  0.75031  1.0000
  O   O13       1.0  0.37128  0.78345  0.25032  1.0000
  O   O14       1.0  0.62128  0.28357  0.25038  1.0000
  O   O15       1.0  0.87126  0.78350  0.25032  1.0000
  O   O16       1.0  0.12130  0.28351  0.25022  1.0000
  O   O17       1.0  0.22783  0.97996  0.25027  1.0000
  O   O18       1.0  0.47768  0.47992  0.25038  1.0000
  O   O19       1.0  0.72777  0.97987  0.25045  1.0000
  O   O20       1.0  0.97772  0.47985  0.25027  1.0000
  O   O21       1.0  0.34861  0.26289  0.75035  1.0000
  O   O22       1.0  0.59862  0.76287  0.75029  1.0000
  O   O23       1.0  0.84862  0.26292  0.75035  1.0000
  O   O24       1.0  0.09866  0.76288  0.75030  1.0000
  O   O25       1.0  0.35295  0.94273  0.09876  1.0000
  O   O26       1.0  0.60287  0.44289  0.09875  1.0000
  O   O27       1.0  0.85294  0.94278  0.09885  1.0000
  O   O28       1.0  0.10282  0.44276  0.09858  1.0000
  O   O29       1.0  0.21999  0.32403  0.59870  1.0000
  O   O30       1.0  0.47001  0.82411  0.59879  1.0000
  O   O31       1.0  0.71999  0.32419  0.59878  1.0000
  O   O32       1.0  0.97000  0.82427  0.59881  1.0000
  O   O33       1.0  0.38342  0.11897  0.59885  1.0000
  O   O34       1.0  0.63336  0.61900  0.59867  1.0000
  O   O35       1.0  0.88353  0.11911  0.59886  1.0000
  O   O36       1.0  0.13337  0.61906  0.59878  1.0000
  O   O37       1.0  0.11733  0.88185  0.09882  1.0000
  O   O38       1.0  0.36730  0.38193  0.09889  1.0000
  O   O39       1.0  0.61740  0.88212  0.09900  1.0000
  O   O40       1.0  0.86726  0.38172  0.09881  1.0000
  O   O41       1.0  0.28079  0.67673  0.09879  1.0000
  O   O42       1.0  0.53075  0.17677  0.09892  1.0000
  O   O43       1.0  0.78076  0.67675  0.09884  1.0000
  O   O44       1.0  0.03072  0.17676  0.09875  1.0000
  O   O45       1.0  0.14785  0.05801  0.59897  1.0000
  O   O46       1.0  0.39763  0.55827  0.59891  1.0000
  O   O47       1.0  0.64795  0.05816  0.59874  1.0000
  O   O48       1.0  0.89782  0.55820  0.59884  1.0000
  O   O49       1.0  0.14791  0.05829  0.90203  1.0000
  O   O50       1.0  0.39792  0.55818  0.90187  1.0000
  O   O51       1.0  0.64784  0.05813  0.90175  1.0000
  O   O52       1.0  0.89791  0.55821  0.90192  1.0000
  O   O53       1.0  0.28082  0.67683  0.40191  1.0000
  O   O54       1.0  0.53088  0.17681  0.40197  1.0000
  O   O55       1.0  0.78108  0.67676  0.40184  1.0000
  O   O56       1.0  0.03097  0.17667  0.40173  1.0000
  O   O57       1.0  0.11749  0.88199  0.40186  1.0000
  O   O58       1.0  0.36749  0.38201  0.40194  1.0000
  O   O59       1.0  0.61749  0.88180  0.40197  1.0000
  O   O60       1.0  0.86743  0.38186  0.40185  1.0000
  O   O61       1.0  0.38349  0.11914  0.90190  1.0000
  O   O62       1.0  0.63354  0.61884  0.90165  1.0000
  O   O63       1.0  0.88345  0.11896  0.90184  1.0000
  O   O64       1.0  0.13355  0.61904  0.90177  1.0000
  O   O65       1.0  0.21994  0.32425  0.90181  1.0000
  O   O66       1.0  0.47020  0.82410  0.90201  1.0000
  O   O67       1.0  0.72007  0.32414  0.90184  1.0000
  O   O68       1.0  0.97004  0.82423  0.90177  1.0000
  O   O69       1.0  0.35309  0.94273  0.40181  1.0000
  O   O70       1.0  0.60303  0.44286  0.40186  1.0000
  O   O71       1.0  0.85307  0.94276  0.40188  1.0000
  O   O72       1.0  0.10300  0.44268  0.40181  1.0000
