data_image0
_chemical_formula_structural       Cs48Ge24O72
_chemical_formula_sum              "Cs48 Ge24 O72"
_cell_length_a       14.1433
_cell_length_b       13.9773
_cell_length_c       17.5015
_cell_angle_alpha    72.1363
_cell_angle_beta     90.0032
_cell_angle_gamma    90.0027

_space_group_name_H-M_alt    "P 1"
_space_group_IT_number       1

loop_
  _space_group_symop_operation_xyz
  'x, y, z'

loop_
  _atom_site_type_symbol
  _atom_site_label
  _atom_site_symmetry_multiplicity
  _atom_site_fract_x
  _atom_site_fract_y
  _atom_site_fract_z
  _atom_site_occupancy
  Cs  Cs1       1.0  0.08818  0.36119  0.53057  1.0000
  Cs  Cs2       1.0  0.08823  0.86123  0.53054  1.0000
  Cs  Cs3       1.0  0.49024  0.32767  0.28106  1.0000
  Cs  Cs4       1.0  0.49034  0.82745  0.28107  1.0000
  Cs  Cs5       1.0  0.69499  0.06178  0.19538  1.0000
  Cs  Cs6       1.0  0.69500  0.56178  0.19526  1.0000
  Cs  Cs7       1.0  0.88155  0.44188  0.36346  1.0000
  Cs  Cs8       1.0  0.88164  0.94187  0.36349  1.0000
  Cs  Cs9       1.0  0.01014  0.32751  0.78116  1.0000
  Cs  Cs10      1.0  0.01027  0.82771  0.78112  1.0000
  Cs  Cs11      1.0  0.61889  0.44191  0.86344  1.0000
  Cs  Cs12      1.0  0.61899  0.94190  0.86345  1.0000
  Cs  Cs13      1.0  0.51030  0.17284  0.71954  1.0000
  Cs  Cs14      1.0  0.51023  0.67279  0.71959  1.0000
  Cs  Cs15      1.0  0.38169  0.05845  0.13729  1.0000
  Cs  Cs16      1.0  0.38165  0.55845  0.13727  1.0000
  Cs  Cs17      1.0  0.30556  0.43863  0.80542  1.0000
  Cs  Cs18      1.0  0.30561  0.93862  0.80543  1.0000
  Cs  Cs19      1.0  0.11900  0.05849  0.63736  1.0000
  Cs  Cs20      1.0  0.11901  0.55856  0.63718  1.0000
  Cs  Cs21      1.0  0.58825  0.13922  0.97007  1.0000
  Cs  Cs22      1.0  0.58828  0.63930  0.97003  1.0000
  Cs  Cs23      1.0  0.61285  0.99999  0.41576  1.0000
  Cs  Cs24      1.0  0.61279  0.50012  0.41589  1.0000
  Cs  Cs25      1.0  0.41252  0.36131  0.03069  1.0000
  Cs  Cs26      1.0  0.41248  0.86145  0.03060  1.0000
  Cs  Cs27      1.0  0.34811  0.27917  0.49255  1.0000
  Cs  Cs28      1.0  0.34815  0.77913  0.49258  1.0000
  Cs  Cs29      1.0  0.65229  0.22112  0.50806  1.0000
  Cs  Cs30      1.0  0.65242  0.72119  0.50804  1.0000
  Cs  Cs31      1.0  0.11279  0.50022  0.08478  1.0000
  Cs  Cs32      1.0  0.11279  0.00018  0.08486  1.0000
  Cs  Cs33      1.0  0.19483  0.43869  0.30542  1.0000
  Cs  Cs34      1.0  0.19480  0.93848  0.30546  1.0000
  Cs  Cs35      1.0  0.88787  0.00017  0.91579  1.0000
  Cs  Cs36      1.0  0.88773  0.50005  0.91587  1.0000
  Cs  Cs37      1.0  0.80560  0.06189  0.69517  1.0000
  Cs  Cs38      1.0  0.80561  0.56174  0.69532  1.0000
  Cs  Cs39      1.0  0.91231  0.13899  0.47003  1.0000
  Cs  Cs40      1.0  0.91231  0.63919  0.47006  1.0000
  Cs  Cs41      1.0  0.84828  0.22114  0.00815  1.0000
  Cs  Cs42      1.0  0.84808  0.72112  0.00811  1.0000
  Cs  Cs43      1.0  0.38770  0.50031  0.58487  1.0000
  Cs  Cs44      1.0  0.38771  0.00032  0.58486  1.0000
  Cs  Cs45      1.0  0.15240  0.27921  0.99270  1.0000
  Cs  Cs46      1.0  0.15234  0.77925  0.99260  1.0000
  Cs  Cs47      1.0  0.99035  0.17277  0.21958  1.0000
  Cs  Cs48      1.0  0.99033  0.67284  0.21963  1.0000
  Ge  Ge1       1.0  0.75433  0.27102  0.78280  1.0000
  Ge  Ge2       1.0  0.75421  0.77108  0.78278  1.0000
  Ge  Ge3       1.0  0.65338  0.36450  0.10254  1.0000
  Ge  Ge4       1.0  0.65323  0.86453  0.10248  1.0000
  Ge  Ge5       1.0  0.34773  0.13619  0.89805  1.0000
  Ge  Ge6       1.0  0.34760  0.63628  0.89803  1.0000
  Ge  Ge7       1.0  0.84767  0.36437  0.60250  1.0000
  Ge  Ge8       1.0  0.84757  0.86441  0.60255  1.0000
  Ge  Ge9       1.0  0.15325  0.13601  0.39815  1.0000
  Ge  Ge10      1.0  0.15317  0.63606  0.39807  1.0000
  Ge  Ge11      1.0  0.87472  0.41721  0.13394  1.0000
  Ge  Ge12      1.0  0.87463  0.91727  0.13391  1.0000
  Ge  Ge13      1.0  0.37466  0.08317  0.36653  1.0000
  Ge  Ge14      1.0  0.37455  0.58308  0.36667  1.0000
  Ge  Ge15      1.0  0.25418  0.22958  0.71780  1.0000
  Ge  Ge16      1.0  0.25426  0.72952  0.71776  1.0000
  Ge  Ge17      1.0  0.12626  0.08324  0.86667  1.0000
  Ge  Ge18      1.0  0.12615  0.58326  0.86658  1.0000
  Ge  Ge19      1.0  0.24629  0.22946  0.21786  1.0000
  Ge  Ge20      1.0  0.24637  0.72939  0.21779  1.0000
  Ge  Ge21      1.0  0.62613  0.41717  0.63394  1.0000
  Ge  Ge22      1.0  0.62614  0.91723  0.63391  1.0000
  Ge  Ge23      1.0  0.74633  0.27102  0.28281  1.0000
  Ge  Ge24      1.0  0.74632  0.77101  0.28274  1.0000
  O   O1        1.0  0.55005  0.36033  0.58309  1.0000
  O   O2        1.0  0.55010  0.86010  0.58323  1.0000
  O   O3        1.0  0.86416  0.29990  0.53347  1.0000
  O   O4        1.0  0.86396  0.80001  0.53345  1.0000
  O   O5        1.0  0.77316  0.14673  0.33422  1.0000
  O   O6        1.0  0.77311  0.64674  0.33413  1.0000
  O   O7        1.0  0.95079  0.36022  0.08318  1.0000
  O   O8        1.0  0.95068  0.86026  0.08318  1.0000
  O   O9        1.0  0.56476  0.44732  0.11032  1.0000
  O   O10       1.0  0.56457  0.94727  0.11037  1.0000
  O   O11       1.0  0.67103  0.27041  0.19919  1.0000
  O   O12       1.0  0.67101  0.77046  0.19911  1.0000
  O   O13       1.0  0.40811  0.46784  0.35760  1.0000
  O   O14       1.0  0.40834  0.96796  0.35746  1.0000
  O   O15       1.0  0.85310  0.33383  0.23459  1.0000
  O   O16       1.0  0.85311  0.83387  0.23459  1.0000
  O   O17       1.0  0.64753  0.33377  0.73464  1.0000
  O   O18       1.0  0.64747  0.83391  0.73463  1.0000
  O   O19       1.0  0.63679  0.30006  0.03349  1.0000
  O   O20       1.0  0.63674  0.80018  0.03337  1.0000
  O   O21       1.0  0.14743  0.16670  0.76598  1.0000
  O   O22       1.0  0.14750  0.66670  0.76592  1.0000
  O   O23       1.0  0.06455  0.05316  0.39043  1.0000
  O   O24       1.0  0.06448  0.55324  0.39035  1.0000
  O   O25       1.0  0.09252  0.46795  0.85761  1.0000
  O   O26       1.0  0.09267  0.96790  0.85775  1.0000
  O   O27       1.0  0.36411  0.20040  0.96728  1.0000
  O   O28       1.0  0.36408  0.70068  0.96712  1.0000
  O   O29       1.0  0.93627  0.44726  0.61023  1.0000
  O   O30       1.0  0.93618  0.94727  0.61029  1.0000
  O   O31       1.0  0.23928  0.06292  0.91912  1.0000
  O   O32       1.0  0.23912  0.56306  0.91910  1.0000
  O   O33       1.0  0.19691  0.15515  0.16467  1.0000
  O   O34       1.0  0.19695  0.65497  0.16472  1.0000
  O   O35       1.0  0.13683  0.20029  0.46732  1.0000
  O   O36       1.0  0.13674  0.70052  0.46713  1.0000
  O   O37       1.0  0.59251  0.03248  0.64297  1.0000
  O   O38       1.0  0.59242  0.53239  0.64299  1.0000
  O   O39       1.0  0.22729  0.35383  0.66637  1.0000
  O   O40       1.0  0.22736  0.85375  0.66634  1.0000
  O   O41       1.0  0.35320  0.16672  0.26589  1.0000
  O   O42       1.0  0.35306  0.66649  0.26602  1.0000
  O   O43       1.0  0.27307  0.35374  0.16644  1.0000
  O   O44       1.0  0.27316  0.85372  0.16647  1.0000
  O   O45       1.0  0.69691  0.34552  0.33579  1.0000
  O   O46       1.0  0.69708  0.84529  0.33599  1.0000
  O   O47       1.0  0.72752  0.14677  0.83429  1.0000
  O   O48       1.0  0.72727  0.64682  0.83416  1.0000
  O   O49       1.0  0.30357  0.15524  0.66466  1.0000
  O   O50       1.0  0.30359  0.65509  0.66468  1.0000
  O   O51       1.0  0.90838  0.03249  0.14296  1.0000
  O   O52       1.0  0.90824  0.53245  0.14302  1.0000
  O   O53       1.0  0.73915  0.43751  0.58143  1.0000
  O   O54       1.0  0.73910  0.93760  0.58134  1.0000
  O   O55       1.0  0.45070  0.13990  0.41749  1.0000
  O   O56       1.0  0.45062  0.64008  0.41742  1.0000
  O   O57       1.0  0.80356  0.34535  0.83604  1.0000
  O   O58       1.0  0.80354  0.84541  0.83597  1.0000
  O   O59       1.0  0.26171  0.06281  0.41915  1.0000
  O   O60       1.0  0.26157  0.56275  0.41923  1.0000
  O   O61       1.0  0.43630  0.05328  0.89031  1.0000
  O   O62       1.0  0.43610  0.55326  0.89037  1.0000
  O   O63       1.0  0.76176  0.43781  0.08135  1.0000
  O   O64       1.0  0.76164  0.93778  0.08139  1.0000
  O   O65       1.0  0.17107  0.23011  0.30154  1.0000
  O   O66       1.0  0.17106  0.72998  0.30140  1.0000
  O   O67       1.0  0.32957  0.23011  0.80142  1.0000
  O   O68       1.0  0.32966  0.73017  0.80133  1.0000
  O   O69       1.0  0.05005  0.14009  0.91744  1.0000
  O   O70       1.0  0.05005  0.64021  0.91733  1.0000
  O   O71       1.0  0.82974  0.27045  0.69922  1.0000
  O   O72       1.0  0.82954  0.77044  0.69919  1.0000
