data_image0
_chemical_formula_structural       Ba8Sn8Ge24O72
_chemical_formula_sum              "Ba8 Sn8 Ge24 O72"
_cell_length_a       13.8792
_cell_length_b       12.0136
_cell_length_c       10.3337
_cell_angle_alpha    90.0032
_cell_angle_beta     90.0018
_cell_angle_gamma    90.0062

_space_group_name_H-M_alt    "P 1"
_space_group_IT_number       1

loop_
  _space_group_symop_operation_xyz
  'x, y, z'

loop_
  _atom_site_type_symbol
  _atom_site_label
  _atom_site_symmetry_multiplicity
  _atom_site_fract_x
  _atom_site_fract_y
  _atom_site_fract_z
  _atom_site_occupancy
  Ba  Ba1       1.0  0.25036  0.83370  0.00062  1.0000
  Ba  Ba2       1.0  0.50041  0.33366  0.00040  1.0000
  Ba  Ba3       1.0  0.75032  0.83370  0.00061  1.0000
  Ba  Ba4       1.0  0.00034  0.33371  0.00052  1.0000
  Ba  Ba5       1.0  0.25041  0.83373  0.50060  1.0000
  Ba  Ba6       1.0  0.50032  0.33361  0.50045  1.0000
  Ba  Ba7       1.0  0.75039  0.83364  0.50062  1.0000
  Ba  Ba8       1.0  0.00033  0.33363  0.50045  1.0000
  Sn  Sn1       1.0  0.25029  0.16711  0.00043  1.0000
  Sn  Sn2       1.0  0.50032  0.66702  0.00049  1.0000
  Sn  Sn3       1.0  0.75036  0.16704  0.00047  1.0000
  Sn  Sn4       1.0  0.00027  0.66703  0.00055  1.0000
  Sn  Sn5       1.0  0.25033  0.16699  0.50044  1.0000
  Sn  Sn6       1.0  0.50035  0.66703  0.50049  1.0000
  Sn  Sn7       1.0  0.75031  0.16699  0.50050  1.0000
  Sn  Sn8       1.0  0.00037  0.66698  0.50051  1.0000
  Ge  Ge1       1.0  0.09236  0.11131  0.25053  1.0000
  Ge  Ge2       1.0  0.34233  0.61135  0.25054  1.0000
  Ge  Ge3       1.0  0.59232  0.11134  0.25043  1.0000
  Ge  Ge4       1.0  0.84229  0.61132  0.25053  1.0000
  Ge  Ge5       1.0  0.28731  0.35296  0.25049  1.0000
  Ge  Ge6       1.0  0.53729  0.85293  0.25043  1.0000
  Ge  Ge7       1.0  0.78725  0.35293  0.25052  1.0000
  Ge  Ge8       1.0  0.03728  0.85293  0.25058  1.0000
  Ge  Ge9       1.0  0.37110  0.03728  0.25040  1.0000
  Ge  Ge10      1.0  0.62105  0.53725  0.25054  1.0000
  Ge  Ge11      1.0  0.87110  0.03723  0.25057  1.0000
  Ge  Ge12      1.0  0.12110  0.53722  0.25057  1.0000
  Ge  Ge13      1.0  0.40829  0.11139  0.75044  1.0000
  Ge  Ge14      1.0  0.65833  0.61139  0.75048  1.0000
  Ge  Ge15      1.0  0.90831  0.11138  0.75045  1.0000
  Ge  Ge16      1.0  0.15829  0.61143  0.75062  1.0000
  Ge  Ge17      1.0  0.12955  0.03726  0.75048  1.0000
  Ge  Ge18      1.0  0.37953  0.53731  0.75057  1.0000
  Ge  Ge19      1.0  0.62954  0.03726  0.75061  1.0000
  Ge  Ge20      1.0  0.87958  0.53725  0.75051  1.0000
  Ge  Ge21      1.0  0.21326  0.35302  0.75048  1.0000
  Ge  Ge22      1.0  0.46331  0.85298  0.75060  1.0000
  Ge  Ge23      1.0  0.71332  0.35298  0.75046  1.0000
  Ge  Ge24      1.0  0.96332  0.85297  0.75054  1.0000
  O   O1        1.0  0.11823  0.96766  0.25045  1.0000
  O   O2        1.0  0.36822  0.46770  0.25059  1.0000
  O   O3        1.0  0.61819  0.96768  0.25027  1.0000
  O   O4        1.0  0.86817  0.46769  0.25060  1.0000
  O   O5        1.0  0.41674  0.89895  0.25034  1.0000
  O   O6        1.0  0.66668  0.39889  0.25043  1.0000
  O   O7        1.0  0.91671  0.89888  0.25052  1.0000
  O   O8        1.0  0.16674  0.39891  0.25047  1.0000
  O   O9        1.0  0.21587  0.63485  0.25031  1.0000
  O   O10       1.0  0.46586  0.13494  0.25029  1.0000
  O   O11       1.0  0.71584  0.63488  0.25063  1.0000
  O   O12       1.0  0.96589  0.13483  0.25061  1.0000
  O   O13       1.0  0.38243  0.96772  0.75061  1.0000
  O   O14       1.0  0.63243  0.46772  0.75066  1.0000
  O   O15       1.0  0.88243  0.96772  0.75035  1.0000
  O   O16       1.0  0.13240  0.46778  0.75045  1.0000
  O   O17       1.0  0.28477  0.63496  0.75063  1.0000
  O   O18       1.0  0.53479  0.13491  0.75050  1.0000
  O   O19       1.0  0.78482  0.63487  0.75055  1.0000
  O   O20       1.0  0.03479  0.13487  0.75046  1.0000
  O   O21       1.0  0.08391  0.89893  0.75035  1.0000
  O   O22       1.0  0.33385  0.39899  0.75035  1.0000
  O   O23       1.0  0.58390  0.89893  0.75039  1.0000
  O   O24       1.0  0.83391  0.39892  0.75050  1.0000
  O   O25       1.0  0.12761  0.17854  0.10964  1.0000
  O   O26       1.0  0.37769  0.67851  0.10967  1.0000
  O   O27       1.0  0.62768  0.17858  0.10961  1.0000
  O   O28       1.0  0.87751  0.67844  0.10958  1.0000
  O   O29       1.0  0.32026  0.28380  0.39111  1.0000
  O   O30       1.0  0.57023  0.78395  0.39119  1.0000
  O   O31       1.0  0.82021  0.28385  0.39117  1.0000
  O   O32       1.0  0.07031  0.78387  0.39125  1.0000
  O   O33       1.0  0.30298  0.03859  0.39118  1.0000
  O   O34       1.0  0.55300  0.53858  0.39135  1.0000
  O   O35       1.0  0.80300  0.03859  0.39134  1.0000
  O   O36       1.0  0.05317  0.53856  0.39151  1.0000
  O   O37       1.0  0.30311  0.03873  0.10949  1.0000
  O   O38       1.0  0.55301  0.53862  0.10968  1.0000
  O   O39       1.0  0.80309  0.03868  0.10968  1.0000
  O   O40       1.0  0.05293  0.53863  0.10981  1.0000
  O   O41       1.0  0.32015  0.28409  0.10961  1.0000
  O   O42       1.0  0.57024  0.78394  0.10969  1.0000
  O   O43       1.0  0.82020  0.28405  0.10965  1.0000
  O   O44       1.0  0.07014  0.78396  0.10976  1.0000
  O   O45       1.0  0.37294  0.17868  0.89121  1.0000
  O   O46       1.0  0.62294  0.67862  0.89126  1.0000
  O   O47       1.0  0.87306  0.17848  0.89138  1.0000
  O   O48       1.0  0.12299  0.67856  0.89152  1.0000
  O   O49       1.0  0.19761  0.03865  0.89129  1.0000
  O   O50       1.0  0.44757  0.53862  0.89140  1.0000
  O   O51       1.0  0.69764  0.03857  0.89141  1.0000
  O   O52       1.0  0.94773  0.53865  0.89126  1.0000
  O   O53       1.0  0.18035  0.28401  0.89123  1.0000
  O   O54       1.0  0.43042  0.78396  0.89131  1.0000
  O   O55       1.0  0.68043  0.28382  0.89110  1.0000
  O   O56       1.0  0.93042  0.78397  0.89130  1.0000
  O   O57       1.0  0.19768  0.03865  0.60970  1.0000
  O   O58       1.0  0.44763  0.53869  0.60976  1.0000
  O   O59       1.0  0.69764  0.03870  0.60980  1.0000
  O   O60       1.0  0.94760  0.53859  0.60962  1.0000
  O   O61       1.0  0.18048  0.28395  0.60967  1.0000
  O   O62       1.0  0.43053  0.78399  0.60977  1.0000
  O   O63       1.0  0.68050  0.28407  0.60957  1.0000
  O   O64       1.0  0.93048  0.78387  0.60979  1.0000
  O   O65       1.0  0.12764  0.17848  0.39140  1.0000
  O   O66       1.0  0.37766  0.67860  0.39137  1.0000
  O   O67       1.0  0.62763  0.17840  0.39138  1.0000
  O   O68       1.0  0.87776  0.67857  0.39129  1.0000
  O   O69       1.0  0.37310  0.17838  0.60942  1.0000
  O   O70       1.0  0.62314  0.67840  0.60947  1.0000
  O   O71       1.0  0.87306  0.17853  0.60954  1.0000
  O   O72       1.0  0.12305  0.67857  0.60969  1.0000
