data_image0
_chemical_formula_structural       Cs16Si24Sn8O72
_chemical_formula_sum              "Cs16 Si24 Sn8 O72"
_cell_length_a       16.0101
_cell_length_b       10.406
_cell_length_c       11.8335
_cell_angle_alpha    90.0017
_cell_angle_beta     89.9985
_cell_angle_gamma    89.9993

_space_group_name_H-M_alt    "P 1"
_space_group_IT_number       1

loop_
  _space_group_symop_operation_xyz
  'x, y, z'

loop_
  _atom_site_type_symbol
  _atom_site_label
  _atom_site_symmetry_multiplicity
  _atom_site_fract_x
  _atom_site_fract_y
  _atom_site_fract_z
  _atom_site_occupancy
  Cs  Cs1       1.0  0.38353  0.78835  0.89775  1.0000
  Cs  Cs2       1.0  0.88370  0.78817  0.89777  1.0000
  Cs  Cs3       1.0  0.13365  0.71268  0.10319  1.0000
  Cs  Cs4       1.0  0.63361  0.71246  0.10332  1.0000
  Cs  Cs5       1.0  0.46296  0.89302  0.52144  1.0000
  Cs  Cs6       1.0  0.96313  0.89277  0.52160  1.0000
  Cs  Cs7       1.0  0.21311  0.60787  0.47932  1.0000
  Cs  Cs8       1.0  0.71289  0.60797  0.47908  1.0000
  Cs  Cs9       1.0  0.03738  0.39318  0.97914  1.0000
  Cs  Cs10      1.0  0.53745  0.39267  0.97952  1.0000
  Cs  Cs11      1.0  0.28726  0.10827  0.02129  1.0000
  Cs  Cs12      1.0  0.78769  0.10788  0.02137  1.0000
  Cs  Cs13      1.0  0.36682  0.21288  0.39756  1.0000
  Cs  Cs14      1.0  0.86690  0.21295  0.39778  1.0000
  Cs  Cs15      1.0  0.11693  0.28827  0.60321  1.0000
  Cs  Cs16      1.0  0.61694  0.28794  0.60327  1.0000
  Si  Si1       1.0  0.03987  0.39020  0.29201  1.0000
  Si  Si2       1.0  0.53983  0.39016  0.29200  1.0000
  Si  Si3       1.0  0.46078  0.89032  0.20889  1.0000
  Si  Si4       1.0  0.96087  0.89017  0.20898  1.0000
  Si  Si5       1.0  0.29244  0.47548  0.99308  1.0000
  Si  Si6       1.0  0.79250  0.47526  0.99310  1.0000
  Si  Si7       1.0  0.28010  0.87375  0.28643  1.0000
  Si  Si8       1.0  0.78015  0.87371  0.28645  1.0000
  Si  Si9       1.0  0.03010  0.62715  0.71445  1.0000
  Si  Si10      1.0  0.53009  0.62720  0.71448  1.0000
  Si  Si11      1.0  0.21082  0.61079  0.79192  1.0000
  Si  Si12      1.0  0.71082  0.61080  0.79202  1.0000
  Si  Si13      1.0  0.28982  0.11078  0.70881  1.0000
  Si  Si14      1.0  0.78982  0.11068  0.70886  1.0000
  Si  Si15      1.0  0.04251  0.02562  0.00776  1.0000
  Si  Si16      1.0  0.54251  0.02568  0.00777  1.0000
  Si  Si17      1.0  0.45816  0.52562  0.49312  1.0000
  Si  Si18      1.0  0.95816  0.52557  0.49313  1.0000
  Si  Si19      1.0  0.20814  0.97536  0.50768  1.0000
  Si  Si20      1.0  0.70818  0.97528  0.50776  1.0000
  Si  Si21      1.0  0.22051  0.37377  0.21433  1.0000
  Si  Si22      1.0  0.72052  0.37362  0.21435  1.0000
  Si  Si23      1.0  0.47047  0.12717  0.78646  1.0000
  Si  Si24      1.0  0.97051  0.12716  0.78642  1.0000
  Sn  Sn1       1.0  0.12292  0.09074  0.26416  1.0000
  Sn  Sn2       1.0  0.62292  0.09077  0.26420  1.0000
  Sn  Sn3       1.0  0.37289  0.41022  0.73665  1.0000
  Sn  Sn4       1.0  0.87288  0.41016  0.73667  1.0000
  Sn  Sn5       1.0  0.37773  0.59075  0.23666  1.0000
  Sn  Sn6       1.0  0.87776  0.59069  0.23669  1.0000
  Sn  Sn7       1.0  0.12769  0.91020  0.76411  1.0000
  Sn  Sn8       1.0  0.62767  0.91014  0.76424  1.0000
  O   O1        1.0  0.27981  0.05586  0.57906  1.0000
  O   O2        1.0  0.77992  0.05556  0.57918  1.0000
  O   O3        1.0  0.20795  0.95005  0.21965  1.0000
  O   O4        1.0  0.70798  0.95001  0.21972  1.0000
  O   O5        1.0  0.29035  0.26554  0.70129  1.0000
  O   O6        1.0  0.79035  0.26545  0.70115  1.0000
  O   O7        1.0  0.01505  0.61627  0.57719  1.0000
  O   O8        1.0  0.51506  0.61626  0.57721  1.0000
  O   O9        1.0  0.09634  0.11210  0.09387  1.0000
  O   O10       1.0  0.59632  0.11222  0.09386  1.0000
  O   O11       1.0  0.29269  0.45003  0.28109  1.0000
  O   O12       1.0  0.79263  0.45012  0.28105  1.0000
  O   O13       1.0  0.48554  0.11622  0.92369  1.0000
  O   O14       1.0  0.98560  0.11624  0.92367  1.0000
  O   O15       1.0  0.28450  0.55082  0.71580  1.0000
  O   O16       1.0  0.78457  0.55098  0.71591  1.0000
  O   O17       1.0  0.03301  0.77711  0.74744  1.0000
  O   O18       1.0  0.53295  0.77720  0.74742  1.0000
  O   O19       1.0  0.34634  0.38903  0.90702  1.0000
  O   O20       1.0  0.84638  0.38881  0.90699  1.0000
  O   O21       1.0  0.21609  0.05084  0.78488  1.0000
  O   O22       1.0  0.71612  0.05072  0.78495  1.0000
  O   O23       1.0  0.47083  0.94529  0.07918  1.0000
  O   O24       1.0  0.97090  0.94513  0.07923  1.0000
  O   O25       1.0  0.21763  0.22374  0.24711  1.0000
  O   O26       1.0  0.71767  0.22369  0.24742  1.0000
  O   O27       1.0  0.02985  0.44520  0.42172  1.0000
  O   O28       1.0  0.52990  0.44529  0.42170  1.0000
  O   O29       1.0  0.37080  0.94189  0.25891  1.0000
  O   O30       1.0  0.87091  0.94174  0.25906  1.0000
  O   O31       1.0  0.46622  0.45023  0.21579  1.0000
  O   O32       1.0  0.96621  0.45014  0.21581  1.0000
  O   O33       1.0  0.03458  0.95000  0.28516  1.0000
  O   O34       1.0  0.53440  0.95038  0.28506  1.0000
  O   O35       1.0  0.04039  0.23546  0.29975  1.0000
  O   O36       1.0  0.54034  0.23542  0.29974  1.0000
  O   O37       1.0  0.12087  0.55919  0.74185  1.0000
  O   O38       1.0  0.62085  0.55921  0.74199  1.0000
  O   O39       1.0  0.26504  0.88463  0.42368  1.0000
  O   O40       1.0  0.76506  0.88457  0.42369  1.0000
  O   O41       1.0  0.37975  0.05916  0.75890  1.0000
  O   O42       1.0  0.87972  0.05922  0.75918  1.0000
  O   O43       1.0  0.09759  0.92809  0.93238  1.0000
  O   O44       1.0  0.59761  0.92804  0.93253  1.0000
  O   O45       1.0  0.22076  0.55592  0.92168  1.0000
  O   O46       1.0  0.72085  0.55576  0.92173  1.0000
  O   O47       1.0  0.15424  0.88889  0.59375  1.0000
  O   O48       1.0  0.65416  0.88904  0.59384  1.0000
  O   O49       1.0  0.34748  0.57309  0.06844  1.0000
  O   O50       1.0  0.84757  0.57282  0.06847  1.0000
  O   O51       1.0  0.21026  0.76554  0.79952  1.0000
  O   O52       1.0  0.71022  0.76555  0.79969  1.0000
  O   O53       1.0  0.15324  0.07316  0.43235  1.0000
  O   O54       1.0  0.65325  0.07301  0.43241  1.0000
  O   O55       1.0  0.28307  0.72376  0.25352  1.0000
  O   O56       1.0  0.78308  0.72374  0.25343  1.0000
  O   O57       1.0  0.40425  0.61200  0.40700  1.0000
  O   O58       1.0  0.90419  0.61194  0.40708  1.0000
  O   O59       1.0  0.40308  0.42795  0.56838  1.0000
  O   O60       1.0  0.90319  0.42786  0.56846  1.0000
  O   O61       1.0  0.46020  0.73555  0.20127  1.0000
  O   O62       1.0  0.96031  0.73540  0.20121  1.0000
  O   O63       1.0  0.46756  0.27713  0.75348  1.0000
  O   O64       1.0  0.96759  0.27710  0.75341  1.0000
  O   O65       1.0  0.12982  0.44184  0.24199  1.0000
  O   O66       1.0  0.62979  0.44163  0.24187  1.0000
  O   O67       1.0  0.04258  0.05076  0.71955  1.0000
  O   O68       1.0  0.54259  0.05072  0.71976  1.0000
  O   O69       1.0  0.45796  0.55086  0.78124  1.0000
  O   O70       1.0  0.95800  0.55073  0.78122  1.0000
  O   O71       1.0  0.23546  0.38483  0.07707  1.0000
  O   O72       1.0  0.73552  0.38457  0.07707  1.0000
