data_image0
_chemical_formula_structural       Cs16Bi32O56
_chemical_formula_sum              "Cs16 Bi32 O56"
_cell_length_a       13.059
_cell_length_b       12.5599
_cell_length_c       15.9584
_cell_angle_alpha    85.0215
_cell_angle_beta     89.9992
_cell_angle_gamma    121.322

_space_group_name_H-M_alt    "P 1"
_space_group_IT_number       1

loop_
  _space_group_symop_operation_xyz
  'x, y, z'

loop_
  _atom_site_type_symbol
  _atom_site_label
  _atom_site_symmetry_multiplicity
  _atom_site_fract_x
  _atom_site_fract_y
  _atom_site_fract_z
  _atom_site_occupancy
  Cs  Cs1       1.0  0.37740  0.35541  0.20597  1.0000
  Cs  Cs2       1.0  0.03189  0.15516  0.29326  1.0000
  Cs  Cs3       1.0  0.13615  0.67925  0.79344  1.0000
  Cs  Cs4       1.0  0.12394  0.15513  0.79324  1.0000
  Cs  Cs5       1.0  0.02238  0.64536  0.29467  1.0000
  Cs  Cs6       1.0  0.36156  0.82657  0.21250  1.0000
  Cs  Cs7       1.0  0.54381  0.67930  0.29346  1.0000
  Cs  Cs8       1.0  0.96920  0.84558  0.70738  1.0000
  Cs  Cs9       1.0  0.45721  0.32143  0.70720  1.0000
  Cs  Cs10      1.0  0.63949  0.17420  0.78811  1.0000
  Cs  Cs11      1.0  0.46571  0.82655  0.71251  1.0000
  Cs  Cs12      1.0  0.62368  0.64536  0.79468  1.0000
  Cs  Cs13      1.0  0.86490  0.32147  0.20720  1.0000
  Cs  Cs14      1.0  0.97862  0.35532  0.70599  1.0000
  Cs  Cs15      1.0  0.87716  0.84566  0.20738  1.0000
  Cs  Cs16      1.0  0.53533  0.17417  0.28813  1.0000
  Bi  Bi1       1.0  0.69888  0.99278  0.38266  1.0000
  Bi  Bi2       1.0  0.45596  0.85519  0.96835  1.0000
  Bi  Bi3       1.0  0.90879  0.79951  0.46078  1.0000
  Bi  Bi4       1.0  0.39581  0.30257  0.95924  1.0000
  Bi  Bi5       1.0  0.54513  0.14561  0.03227  1.0000
  Bi  Bi6       1.0  0.60181  0.64320  0.53614  1.0000
  Bi  Bi7       1.0  0.21110  0.51063  0.11231  1.0000
  Bi  Bi8       1.0  0.09361  0.69813  0.54142  1.0000
  Bi  Bi9       1.0  0.89144  0.79957  0.96075  1.0000
  Bi  Bi10      1.0  0.09224  0.20120  0.53987  1.0000
  Bi  Bi11      1.0  0.60111  0.14554  0.53228  1.0000
  Bi  Bi12      1.0  0.29458  0.99278  0.88267  1.0000
  Bi  Bi13      1.0  0.23870  0.02615  0.12020  1.0000
  Bi  Bi14      1.0  0.30214  0.00790  0.61799  1.0000
  Bi  Bi15      1.0  0.21107  0.47867  0.37357  1.0000
  Bi  Bi16      1.0  0.76241  0.97464  0.88045  1.0000
  Bi  Bi17      1.0  0.78991  0.49010  0.88836  1.0000
  Bi  Bi18      1.0  0.39988  0.85511  0.46835  1.0000
  Bi  Bi19      1.0  0.78814  0.02612  0.62019  1.0000
  Bi  Bi20      1.0  0.73284  0.52211  0.12709  1.0000
  Bi  Bi21      1.0  0.30016  0.51062  0.61233  1.0000
  Bi  Bi22      1.0  0.60525  0.69822  0.04141  1.0000
  Bi  Bi23      1.0  0.95900  0.35756  0.96456  1.0000
  Bi  Bi24      1.0  0.70083  0.49012  0.38835  1.0000
  Bi  Bi25      1.0  0.78990  0.52205  0.62709  1.0000
  Bi  Bi26      1.0  0.21292  0.97458  0.38048  1.0000
  Bi  Bi27      1.0  0.26821  0.47865  0.87354  1.0000
  Bi  Bi28      1.0  0.70650  0.00800  0.11796  1.0000
  Bi  Bi29      1.0  0.39920  0.35758  0.46453  1.0000
  Bi  Bi30      1.0  0.10963  0.20121  0.03989  1.0000
  Bi  Bi31      1.0  0.90737  0.30255  0.45925  1.0000
  Bi  Bi32      1.0  0.04205  0.64320  0.03612  1.0000
  O   O1        1.0  0.58614  0.81756  0.90000  1.0000
  O   O2        1.0  0.43630  0.17895  0.88360  1.0000
  O   O3        1.0  0.09097  0.86540  0.52364  1.0000
  O   O4        1.0  0.61568  0.03031  0.97442  1.0000
  O   O5        1.0  0.02806  0.87432  0.35007  1.0000
  O   O6        1.0  0.65073  0.62500  0.15375  1.0000
  O   O7        1.0  0.41525  0.03022  0.47444  1.0000
  O   O8        1.0  0.11623  0.53310  0.97434  1.0000
  O   O9        1.0  0.25770  0.82173  0.61703  1.0000
  O   O10       1.0  0.26486  0.51010  0.24175  1.0000
  O   O11       1.0  0.74328  0.17894  0.38364  1.0000
  O   O12       1.0  0.35035  0.37581  0.84689  1.0000
  O   O13       1.0  0.74722  0.00043  0.25032  1.0000
  O   O14       1.0  0.22590  0.13531  0.97700  1.0000
  O   O15       1.0  0.84698  0.87437  0.85004  1.0000
  O   O16       1.0  0.27929  0.36869  0.02031  1.0000
  O   O17       1.0  0.76344  0.67440  0.60909  1.0000
  O   O18       1.0  0.91095  0.63203  0.48034  1.0000
  O   O19       1.0  0.51757  0.41652  0.35530  1.0000
  O   O20       1.0  0.41498  0.18325  0.10064  1.0000
  O   O21       1.0  0.91007  0.13528  0.47701  1.0000
  O   O22       1.0  0.09005  0.36868  0.52033  1.0000
  O   O23       1.0  0.41751  0.53311  0.47437  1.0000
  O   O24       1.0  0.75514  0.49066  0.25890  1.0000
  O   O25       1.0  0.40196  0.91458  0.85591  1.0000
  O   O26       1.0  0.02609  0.37581  0.34690  1.0000
  O   O27       1.0  0.73614  0.49059  0.75891  1.0000
  O   O28       1.0  0.24583  0.51006  0.74176  1.0000
  O   O29       1.0  0.25224  0.32236  0.61668  1.0000
  O   O30       1.0  0.89955  0.41644  0.85531  1.0000
  O   O31       1.0  0.91164  0.67443  0.10907  1.0000
  O   O32       1.0  0.23756  0.32635  0.39160  1.0000
  O   O33       1.0  0.58573  0.97043  0.52620  1.0000
  O   O34       1.0  0.76892  0.18321  0.60061  1.0000
  O   O35       1.0  0.97491  0.62490  0.65375  1.0000
  O   O36       1.0  0.74881  0.67843  0.38395  1.0000
  O   O37       1.0  0.27211  0.00036  0.25033  1.0000
  O   O38       1.0  0.25383  0.00034  0.75033  1.0000
  O   O39       1.0  0.38541  0.97049  0.02620  1.0000
  O   O40       1.0  0.72898  0.00044  0.75031  1.0000
  O   O41       1.0  0.72178  0.63210  0.98032  1.0000
  O   O42       1.0  0.48773  0.08610  0.64473  1.0000
  O   O43       1.0  0.48345  0.58430  0.64537  1.0000
  O   O44       1.0  0.07077  0.32234  0.11670  1.0000
  O   O45       1.0  0.93027  0.67840  0.88392  1.0000
  O   O46       1.0  0.77519  0.86550  0.02360  1.0000
  O   O47       1.0  0.51329  0.91457  0.35590  1.0000
  O   O48       1.0  0.56477  0.82183  0.11702  1.0000
  O   O49       1.0  0.15413  0.12644  0.15059  1.0000
  O   O50       1.0  0.08941  0.32630  0.89161  1.0000
  O   O51       1.0  0.59913  0.08622  0.14472  1.0000
  O   O52       1.0  0.97298  0.12640  0.65057  1.0000
  O   O53       1.0  0.10152  0.58432  0.14533  1.0000
  O   O54       1.0  0.88482  0.46767  0.02630  1.0000
  O   O55       1.0  0.23209  0.81749  0.40000  1.0000
  O   O56       1.0  0.58348  0.46765  0.52632  1.0000
