data_image0
_chemical_formula_structural       K16In8Si32O84
_chemical_formula_sum              "K16 In8 Si32 O84"
_cell_length_a       11.5608
_cell_length_b       16.757
_cell_length_c       10.5366
_cell_angle_alpha    90.4676
_cell_angle_beta     90.0003
_cell_angle_gamma    89.9997

_space_group_name_H-M_alt    "P 1"
_space_group_IT_number       1

loop_
  _space_group_symop_operation_xyz
  'x, y, z'

loop_
  _atom_site_type_symbol
  _atom_site_label
  _atom_site_symmetry_multiplicity
  _atom_site_fract_x
  _atom_site_fract_y
  _atom_site_fract_z
  _atom_site_occupancy
  K   K1        1.0  0.35742  0.50796  0.79492  1.0000
  K   K2        1.0  0.35739  0.00796  0.79489  1.0000
  K   K3        1.0  0.46791  0.74621  0.69373  1.0000
  K   K4        1.0  0.46791  0.24624  0.69374  1.0000
  K   K5        1.0  0.64344  0.49260  0.20602  1.0000
  K   K6        1.0  0.64337  0.99258  0.20600  1.0000
  K   K7        1.0  0.85745  0.74261  0.70597  1.0000
  K   K8        1.0  0.85743  0.24258  0.70599  1.0000
  K   K9        1.0  0.03291  0.49622  0.19370  1.0000
  K   K10       1.0  0.03293  0.99621  0.19376  1.0000
  K   K11       1.0  0.96796  0.50437  0.80726  1.0000
  K   K12       1.0  0.96795  0.00436  0.80729  1.0000
  K   K13       1.0  0.53294  0.25436  0.30727  1.0000
  K   K14       1.0  0.53289  0.75433  0.30727  1.0000
  K   K15       1.0  0.14345  0.25798  0.29490  1.0000
  K   K16       1.0  0.14341  0.75797  0.29491  1.0000
  In  In1       1.0  0.66692  0.39995  0.54065  1.0000
  In  In2       1.0  0.66692  0.89998  0.54067  1.0000
  In  In3       1.0  0.83392  0.14995  0.04068  1.0000
  In  In4       1.0  0.83393  0.64995  0.04066  1.0000
  In  In5       1.0  0.16690  0.85063  0.96033  1.0000
  In  In6       1.0  0.16692  0.35061  0.96028  1.0000
  In  In7       1.0  0.33392  0.60060  0.46032  1.0000
  In  In8       1.0  0.33393  0.10064  0.46035  1.0000
  Si  Si1       1.0  0.45834  0.84227  0.99613  1.0000
  Si  Si2       1.0  0.45834  0.34228  0.99614  1.0000
  Si  Si3       1.0  0.54252  0.15833  0.00480  1.0000
  Si  Si4       1.0  0.54251  0.65831  0.00481  1.0000
  Si  Si5       1.0  0.32721  0.41323  0.21474  1.0000
  Si  Si6       1.0  0.32722  0.91323  0.21475  1.0000
  Si  Si7       1.0  0.95833  0.40830  0.50477  1.0000
  Si  Si8       1.0  0.95832  0.90831  0.50474  1.0000
  Si  Si9       1.0  0.36970  0.39553  0.49905  1.0000
  Si  Si10      1.0  0.36971  0.89556  0.49906  1.0000
  Si  Si11      1.0  0.33660  0.09529  0.16670  1.0000
  Si  Si12      1.0  0.33660  0.59530  0.16670  1.0000
  Si  Si13      1.0  0.66431  0.90525  0.83424  1.0000
  Si  Si14      1.0  0.66429  0.40524  0.83422  1.0000
  Si  Si15      1.0  0.83654  0.65526  0.33424  1.0000
  Si  Si16      1.0  0.83657  0.15527  0.33425  1.0000
  Si  Si17      1.0  0.13116  0.64555  0.99906  1.0000
  Si  Si18      1.0  0.13114  0.14555  0.99905  1.0000
  Si  Si19      1.0  0.17362  0.66323  0.71475  1.0000
  Si  Si20      1.0  0.17361  0.16321  0.71475  1.0000
  Si  Si21      1.0  0.82717  0.33734  0.28617  1.0000
  Si  Si22      1.0  0.82715  0.83731  0.28619  1.0000
  Si  Si23      1.0  0.63114  0.60501  0.50192  1.0000
  Si  Si24      1.0  0.63114  0.10502  0.50191  1.0000
  Si  Si25      1.0  0.67366  0.58733  0.78621  1.0000
  Si  Si26      1.0  0.67365  0.08733  0.78621  1.0000
  Si  Si27      1.0  0.86971  0.35500  0.00187  1.0000
  Si  Si28      1.0  0.86972  0.85500  0.00190  1.0000
  Si  Si29      1.0  0.04251  0.59228  0.49611  1.0000
  Si  Si30      1.0  0.04251  0.09227  0.49611  1.0000
  Si  Si31      1.0  0.16427  0.34529  0.66668  1.0000
  Si  Si32      1.0  0.16426  0.84531  0.66668  1.0000
  O   O1        1.0  0.06520  0.35416  0.55709  1.0000
  O   O2        1.0  0.06517  0.85417  0.55709  1.0000
  O   O3        1.0  0.85225  0.76286  0.96635  1.0000
  O   O4        1.0  0.85220  0.26285  0.96636  1.0000
  O   O5        1.0  0.85854  0.24265  0.26801  1.0000
  O   O6        1.0  0.85851  0.74263  0.26801  1.0000
  O   O7        1.0  0.43972  0.37230  0.14366  1.0000
  O   O8        1.0  0.43975  0.87227  0.14367  1.0000
  O   O9        1.0  0.84671  0.59083  0.22183  1.0000
  O   O10       1.0  0.84673  0.09083  0.22189  1.0000
  O   O11       1.0  0.71267  0.65902  0.40649  1.0000
  O   O12       1.0  0.71271  0.15900  0.40652  1.0000
  O   O13       1.0  0.35214  0.48768  0.53456  1.0000
  O   O14       1.0  0.35217  0.98771  0.53453  1.0000
  O   O15       1.0  0.99780  0.89063  0.99077  1.0000
  O   O16       1.0  0.99781  0.39064  0.99070  1.0000
  O   O17       1.0  0.93971  0.37825  0.35725  1.0000
  O   O18       1.0  0.93971  0.87825  0.35723  1.0000
  O   O19       1.0  0.06113  0.62226  0.64367  1.0000
  O   O20       1.0  0.06113  0.12223  0.64366  1.0000
  O   O21       1.0  0.14867  0.23770  0.03454  1.0000
  O   O22       1.0  0.14869  0.73770  0.03454  1.0000
  O   O23       1.0  0.35853  0.50792  0.23294  1.0000
  O   O24       1.0  0.35857  0.00791  0.23288  1.0000
  O   O25       1.0  0.79144  0.60218  0.86018  1.0000
  O   O26       1.0  0.79143  0.10214  0.86019  1.0000
  O   O27       1.0  0.56113  0.62829  0.85727  1.0000
  O   O28       1.0  0.56113  0.12830  0.85726  1.0000
  O   O29       1.0  0.15468  0.60351  0.41050  1.0000
  O   O30       1.0  0.15470  0.10356  0.41057  1.0000
  O   O31       1.0  0.65415  0.84084  0.72182  1.0000
  O   O32       1.0  0.65409  0.34083  0.72182  1.0000
  O   O33       1.0  0.50302  0.64062  0.49076  1.0000
  O   O34       1.0  0.50303  0.14065  0.49079  1.0000
  O   O35       1.0  0.49782  0.35991  0.51025  1.0000
  O   O36       1.0  0.49780  0.85996  0.51032  1.0000
  O   O37       1.0  0.20941  0.39838  0.14079  1.0000
  O   O38       1.0  0.20942  0.89839  0.14079  1.0000
  O   O39       1.0  0.84616  0.39704  0.59037  1.0000
  O   O40       1.0  0.84616  0.89716  0.59039  1.0000
  O   O41       1.0  0.21271  0.09155  0.09448  1.0000
  O   O42       1.0  0.21276  0.59156  0.09442  1.0000
  O   O43       1.0  0.14229  0.75792  0.73286  1.0000
  O   O44       1.0  0.14230  0.25790  0.73287  1.0000
  O   O45       1.0  0.81997  0.37628  0.14566  1.0000
  O   O46       1.0  0.81993  0.87624  0.14567  1.0000
  O   O47       1.0  0.56527  0.89635  0.94384  1.0000
  O   O48       1.0  0.56520  0.39642  0.94380  1.0000
  O   O49       1.0  0.34616  0.85354  0.91054  1.0000
  O   O50       1.0  0.34618  0.35353  0.91053  1.0000
  O   O51       1.0  0.29142  0.64839  0.64081  1.0000
  O   O52       1.0  0.29143  0.14839  0.64086  1.0000
  O   O53       1.0  0.70939  0.35220  0.36013  1.0000
  O   O54       1.0  0.70937  0.85218  0.36016  1.0000
  O   O55       1.0  0.00304  0.10995  0.01032  1.0000
  O   O56       1.0  0.00305  0.60994  0.01026  1.0000
  O   O57       1.0  0.15408  0.40970  0.77909  1.0000
  O   O58       1.0  0.15411  0.90972  0.77912  1.0000
  O   O59       1.0  0.28816  0.34154  0.59447  1.0000
  O   O60       1.0  0.28812  0.84156  0.59442  1.0000
  O   O61       1.0  0.50043  0.25030  0.00048  1.0000
  O   O62       1.0  0.50034  0.75027  0.00044  1.0000
  O   O63       1.0  0.93565  0.64642  0.44378  1.0000
  O   O64       1.0  0.93567  0.14642  0.44380  1.0000
  O   O65       1.0  0.31998  0.37428  0.35525  1.0000
  O   O66       1.0  0.32000  0.87427  0.35525  1.0000
  O   O67       1.0  0.68088  0.62627  0.64570  1.0000
  O   O68       1.0  0.68091  0.12623  0.64570  1.0000
  O   O69       1.0  0.78817  0.90900  0.90649  1.0000
  O   O70       1.0  0.78814  0.40899  0.90647  1.0000
  O   O71       1.0  0.34680  0.15970  0.27911  1.0000
  O   O72       1.0  0.34672  0.65973  0.27909  1.0000
  O   O73       1.0  0.18086  0.62429  0.85525  1.0000
  O   O74       1.0  0.18080  0.12428  0.85527  1.0000
  O   O75       1.0  0.64237  0.49264  0.76800  1.0000
  O   O76       1.0  0.64231  0.99264  0.76805  1.0000
  O   O77       1.0  0.65469  0.14709  0.09040  1.0000
  O   O78       1.0  0.65469  0.64710  0.09041  1.0000
  O   O79       1.0  0.64865  0.51286  0.46639  1.0000
  O   O80       1.0  0.64861  0.01287  0.46639  1.0000
  O   O81       1.0  0.43568  0.10418  0.05713  1.0000
  O   O82       1.0  0.43572  0.60413  0.05718  1.0000
  O   O83       1.0  0.00039  0.50030  0.50041  1.0000
  O   O84       1.0  0.00045  0.00028  0.50031  1.0000
