data_image0
_chemical_formula_structural       Ti24In48O120
_chemical_formula_sum              "Ti24 In48 O120"
_cell_length_a       10.5397
_cell_length_b       14.5482
_cell_length_c       14.9519
_cell_angle_alpha    90.0004
_cell_angle_beta     89.9991
_cell_angle_gamma    89.9996

_space_group_name_H-M_alt    "P 1"
_space_group_IT_number       1

loop_
  _space_group_symop_operation_xyz
  'x, y, z'

loop_
  _atom_site_type_symbol
  _atom_site_label
  _atom_site_symmetry_multiplicity
  _atom_site_fract_x
  _atom_site_fract_y
  _atom_site_fract_z
  _atom_site_occupancy
  Ti  Ti1       1.0  0.25052  0.19646  0.07757  1.0000
  Ti  Ti2       1.0  0.25042  0.69638  0.07750  1.0000
  Ti  Ti3       1.0  0.58392  0.19639  0.07756  1.0000
  Ti  Ti4       1.0  0.58377  0.69639  0.07752  1.0000
  Ti  Ti5       1.0  0.91716  0.19640  0.07756  1.0000
  Ti  Ti6       1.0  0.91715  0.69639  0.07753  1.0000
  Ti  Ti7       1.0  0.08385  0.30424  0.92311  1.0000
  Ti  Ti8       1.0  0.08377  0.80428  0.92310  1.0000
  Ti  Ti9       1.0  0.41717  0.30426  0.92312  1.0000
  Ti  Ti10      1.0  0.41711  0.80428  0.92314  1.0000
  Ti  Ti11      1.0  0.75050  0.30423  0.92311  1.0000
  Ti  Ti12      1.0  0.75042  0.80422  0.92319  1.0000
  Ti  Ti13      1.0  0.25052  0.44647  0.42318  1.0000
  Ti  Ti14      1.0  0.25046  0.94643  0.42314  1.0000
  Ti  Ti15      1.0  0.58392  0.44646  0.42309  1.0000
  Ti  Ti16      1.0  0.58381  0.94643  0.42310  1.0000
  Ti  Ti17      1.0  0.91713  0.44636  0.42311  1.0000
  Ti  Ti18      1.0  0.91712  0.94652  0.42307  1.0000
  Ti  Ti19      1.0  0.08374  0.05431  0.57754  1.0000
  Ti  Ti20      1.0  0.08391  0.55424  0.57757  1.0000
  Ti  Ti21      1.0  0.41706  0.05423  0.57754  1.0000
  Ti  Ti22      1.0  0.41719  0.55426  0.57753  1.0000
  Ti  Ti23      1.0  0.75041  0.05429  0.57752  1.0000
  Ti  Ti24      1.0  0.75055  0.55422  0.57756  1.0000
  In  In1       1.0  0.25045  0.20083  0.41656  1.0000
  In  In2       1.0  0.25053  0.70081  0.41658  1.0000
  In  In3       1.0  0.58384  0.20081  0.41663  1.0000
  In  In4       1.0  0.58391  0.70080  0.41660  1.0000
  In  In5       1.0  0.91708  0.20087  0.41656  1.0000
  In  In6       1.0  0.91719  0.70070  0.41664  1.0000
  In  In7       1.0  0.08381  0.29986  0.58405  1.0000
  In  In8       1.0  0.08381  0.80000  0.58400  1.0000
  In  In9       1.0  0.41712  0.29989  0.58410  1.0000
  In  In10      1.0  0.41713  0.79986  0.58409  1.0000
  In  In11      1.0  0.75038  0.29988  0.58408  1.0000
  In  In12      1.0  0.75046  0.79998  0.58396  1.0000
  In  In13      1.0  0.25049  0.45084  0.08404  1.0000
  In  In14      1.0  0.25042  0.95070  0.08402  1.0000
  In  In15      1.0  0.58387  0.45077  0.08400  1.0000
  In  In16      1.0  0.58382  0.95084  0.08411  1.0000
  In  In17      1.0  0.91715  0.45076  0.08401  1.0000
  In  In18      1.0  0.91708  0.95078  0.08404  1.0000
  In  In19      1.0  0.08380  0.04992  0.91663  1.0000
  In  In20      1.0  0.08380  0.54988  0.91652  1.0000
  In  In21      1.0  0.41713  0.04993  0.91667  1.0000
  In  In22      1.0  0.41709  0.54990  0.91655  1.0000
  In  In23      1.0  0.75046  0.04988  0.91660  1.0000
  In  In24      1.0  0.75041  0.54992  0.91657  1.0000
  In  In25      1.0  0.08385  0.08702  0.26068  1.0000
  In  In26      1.0  0.08394  0.58693  0.26071  1.0000
  In  In27      1.0  0.41716  0.08699  0.26072  1.0000
  In  In28      1.0  0.41723  0.58698  0.26065  1.0000
  In  In29      1.0  0.75050  0.08694  0.26074  1.0000
  In  In30      1.0  0.75055  0.58697  0.26062  1.0000
  In  In31      1.0  0.25048  0.41374  0.73997  1.0000
  In  In32      1.0  0.25045  0.91375  0.73998  1.0000
  In  In33      1.0  0.58379  0.41367  0.73997  1.0000
  In  In34      1.0  0.58380  0.91372  0.73995  1.0000
  In  In35      1.0  0.91710  0.41374  0.73994  1.0000
  In  In36      1.0  0.91702  0.91371  0.73993  1.0000
  In  In37      1.0  0.08391  0.33699  0.23994  1.0000
  In  In38      1.0  0.08379  0.83698  0.23999  1.0000
  In  In39      1.0  0.41718  0.33704  0.24001  1.0000
  In  In40      1.0  0.41712  0.83696  0.23994  1.0000
  In  In41      1.0  0.75054  0.33697  0.23987  1.0000
  In  In42      1.0  0.75047  0.83696  0.23995  1.0000
  In  In43      1.0  0.25053  0.16370  0.76070  1.0000
  In  In44      1.0  0.25047  0.66377  0.76072  1.0000
  In  In45      1.0  0.58380  0.16367  0.76068  1.0000
  In  In46      1.0  0.58378  0.66373  0.76066  1.0000
  In  In47      1.0  0.91711  0.16369  0.76073  1.0000
  In  In48      1.0  0.91715  0.66375  0.76062  1.0000
  O   O1        1.0  0.25045  0.13003  0.18101  1.0000
  O   O2        1.0  0.25053  0.62993  0.18096  1.0000
  O   O3        1.0  0.58388  0.12987  0.18096  1.0000
  O   O4        1.0  0.58388  0.62988  0.18091  1.0000
  O   O5        1.0  0.91719  0.12998  0.18098  1.0000
  O   O6        1.0  0.91727  0.62992  0.18094  1.0000
  O   O7        1.0  0.08376  0.37082  0.81974  1.0000
  O   O8        1.0  0.08378  0.87068  0.81969  1.0000
  O   O9        1.0  0.41716  0.37071  0.81966  1.0000
  O   O10       1.0  0.41712  0.87076  0.81971  1.0000
  O   O11       1.0  0.75041  0.37064  0.81970  1.0000
  O   O12       1.0  0.75039  0.87069  0.81974  1.0000
  O   O13       1.0  0.25060  0.37996  0.31979  1.0000
  O   O14       1.0  0.25038  0.87993  0.31971  1.0000
  O   O15       1.0  0.58393  0.37997  0.31970  1.0000
  O   O16       1.0  0.58378  0.87998  0.31967  1.0000
  O   O17       1.0  0.91716  0.37979  0.31975  1.0000
  O   O18       1.0  0.91713  0.88004  0.31966  1.0000
  O   O19       1.0  0.08377  0.12084  0.68093  1.0000
  O   O20       1.0  0.08391  0.62070  0.68100  1.0000
  O   O21       1.0  0.41714  0.12073  0.68095  1.0000
  O   O22       1.0  0.41707  0.62082  0.68088  1.0000
  O   O23       1.0  0.75042  0.12070  0.68100  1.0000
  O   O24       1.0  0.75048  0.62069  0.68096  1.0000
  O   O25       1.0  0.25043  0.07737  0.00471  1.0000
  O   O26       1.0  0.25047  0.57740  0.00458  1.0000
  O   O27       1.0  0.58387  0.07738  0.00458  1.0000
  O   O28       1.0  0.58366  0.57741  0.00454  1.0000
  O   O29       1.0  0.91714  0.07738  0.00467  1.0000
  O   O30       1.0  0.91717  0.57735  0.00460  1.0000
  O   O31       1.0  0.08389  0.42329  0.99601  1.0000
  O   O32       1.0  0.08378  0.92330  0.99605  1.0000
  O   O33       1.0  0.41711  0.42328  0.99603  1.0000
  O   O34       1.0  0.41713  0.92330  0.99610  1.0000
  O   O35       1.0  0.75047  0.42330  0.99599  1.0000
  O   O36       1.0  0.75045  0.92329  0.99610  1.0000
  O   O37       1.0  0.25042  0.32738  0.49610  1.0000
  O   O38       1.0  0.25054  0.82745  0.49603  1.0000
  O   O39       1.0  0.58382  0.32740  0.49606  1.0000
  O   O40       1.0  0.58374  0.82740  0.49598  1.0000
  O   O41       1.0  0.91704  0.32741  0.49610  1.0000
  O   O42       1.0  0.91718  0.82740  0.49594  1.0000
  O   O43       1.0  0.08371  0.17329  0.50456  1.0000
  O   O44       1.0  0.08393  0.67330  0.50466  1.0000
  O   O45       1.0  0.41715  0.17326  0.50466  1.0000
  O   O46       1.0  0.41712  0.67331  0.50455  1.0000
  O   O47       1.0  0.75044  0.17327  0.50465  1.0000
  O   O48       1.0  0.75050  0.67330  0.50463  1.0000
  O   O49       1.0  0.25045  0.06482  0.35166  1.0000
  O   O50       1.0  0.25053  0.56481  0.35169  1.0000
  O   O51       1.0  0.58384  0.06486  0.35167  1.0000
  O   O52       1.0  0.58400  0.56484  0.35170  1.0000
  O   O53       1.0  0.91710  0.06489  0.35171  1.0000
  O   O54       1.0  0.91716  0.56474  0.35160  1.0000
  O   O55       1.0  0.08386  0.43579  0.64899  1.0000
  O   O56       1.0  0.08381  0.93592  0.64900  1.0000
  O   O57       1.0  0.41712  0.43588  0.64898  1.0000
  O   O58       1.0  0.41701  0.93583  0.64897  1.0000
  O   O59       1.0  0.75045  0.43587  0.64899  1.0000
  O   O60       1.0  0.75039  0.93585  0.64897  1.0000
  O   O61       1.0  0.25059  0.31490  0.14896  1.0000
  O   O62       1.0  0.25036  0.81479  0.14894  1.0000
  O   O63       1.0  0.58384  0.31477  0.14899  1.0000
  O   O64       1.0  0.58387  0.81482  0.14897  1.0000
  O   O65       1.0  0.91718  0.31485  0.14892  1.0000
  O   O66       1.0  0.91713  0.81481  0.14892  1.0000
  O   O67       1.0  0.08382  0.18585  0.85169  1.0000
  O   O68       1.0  0.08379  0.68585  0.85167  1.0000
  O   O69       1.0  0.41721  0.18583  0.85168  1.0000
  O   O70       1.0  0.41714  0.68582  0.85171  1.0000
  O   O71       1.0  0.75041  0.18583  0.85169  1.0000
  O   O72       1.0  0.75050  0.68586  0.85162  1.0000
  O   O73       1.0  0.08383  0.22028  0.32500  1.0000
  O   O74       1.0  0.08386  0.72019  0.32501  1.0000
  O   O75       1.0  0.41715  0.22026  0.32506  1.0000
  O   O76       1.0  0.41723  0.72020  0.32491  1.0000
  O   O77       1.0  0.75045  0.22031  0.32499  1.0000
  O   O78       1.0  0.75060  0.72023  0.32494  1.0000
  O   O79       1.0  0.25046  0.28044  0.67575  1.0000
  O   O80       1.0  0.25042  0.78044  0.67565  1.0000
  O   O81       1.0  0.58380  0.28040  0.67571  1.0000
  O   O82       1.0  0.58382  0.78044  0.67563  1.0000
  O   O83       1.0  0.91704  0.28044  0.67568  1.0000
  O   O84       1.0  0.91718  0.78048  0.67557  1.0000
  O   O85       1.0  0.08386  0.47021  0.17563  1.0000
  O   O86       1.0  0.08379  0.97024  0.17568  1.0000
  O   O87       1.0  0.41722  0.47024  0.17566  1.0000
  O   O88       1.0  0.41704  0.97019  0.17569  1.0000
  O   O89       1.0  0.75052  0.47023  0.17559  1.0000
  O   O90       1.0  0.75048  0.97026  0.17570  1.0000
  O   O91       1.0  0.25042  0.03043  0.82506  1.0000
  O   O92       1.0  0.25049  0.53047  0.82496  1.0000
  O   O93       1.0  0.58382  0.03041  0.82504  1.0000
  O   O94       1.0  0.58382  0.53045  0.82492  1.0000
  O   O95       1.0  0.91714  0.03041  0.82500  1.0000
  O   O96       1.0  0.91710  0.53044  0.82492  1.0000
  O   O97       1.0  0.08381  0.21433  0.04562  1.0000
  O   O98       1.0  0.08379  0.71433  0.04547  1.0000
  O   O99       1.0  0.41721  0.21416  0.04558  1.0000
  O   O100      1.0  0.41711  0.71438  0.04566  1.0000
  O   O101      1.0  0.75056  0.21429  0.04554  1.0000
  O   O102      1.0  0.75045  0.71414  0.04555  1.0000
  O   O103      1.0  0.25054  0.28628  0.95507  1.0000
  O   O104      1.0  0.25046  0.78632  0.95501  1.0000
  O   O105      1.0  0.58383  0.28637  0.95511  1.0000
  O   O106      1.0  0.58373  0.78630  0.95512  1.0000
  O   O107      1.0  0.91716  0.28639  0.95506  1.0000
  O   O108      1.0  0.91710  0.78638  0.95510  1.0000
  O   O109      1.0  0.08379  0.46436  0.45506  1.0000
  O   O110      1.0  0.08375  0.96439  0.45504  1.0000
  O   O111      1.0  0.41726  0.46427  0.45504  1.0000
  O   O112      1.0  0.41714  0.96446  0.45502  1.0000
  O   O113      1.0  0.75057  0.46444  0.45515  1.0000
  O   O114      1.0  0.75043  0.96435  0.45503  1.0000
  O   O115      1.0  0.25041  0.03633  0.54560  1.0000
  O   O116      1.0  0.25054  0.53627  0.54548  1.0000
  O   O117      1.0  0.58378  0.03625  0.54566  1.0000
  O   O118      1.0  0.58382  0.53631  0.54558  1.0000
  O   O119      1.0  0.91709  0.03625  0.54559  1.0000
  O   O120      1.0  0.91722  0.53637  0.54565  1.0000
