data_image0
_chemical_formula_structural       Rb16Bi32O56
_chemical_formula_sum              "Rb16 Bi32 O56"
_cell_length_a       12.8941
_cell_length_b       12.1483
_cell_length_c       15.6
_cell_angle_alpha    86.2063
_cell_angle_beta     90
_cell_angle_gamma    122.052

_space_group_name_H-M_alt    "P 1"
_space_group_IT_number       1

loop_
  _space_group_symop_operation_xyz
  'x, y, z'

loop_
  _atom_site_type_symbol
  _atom_site_label
  _atom_site_symmetry_multiplicity
  _atom_site_fract_x
  _atom_site_fract_y
  _atom_site_fract_z
  _atom_site_occupancy
  Rb  Rb1       1.0  0.54079  0.16946  0.28966  1.0000
  Rb  Rb2       1.0  0.62900  0.65225  0.79164  1.0000
  Rb  Rb3       1.0  0.37175  0.83156  0.21111  1.0000
  Rb  Rb4       1.0  0.12804  0.67352  0.79044  1.0000
  Rb  Rb5       1.0  0.62949  0.16931  0.78961  1.0000
  Rb  Rb6       1.0  0.37241  0.34890  0.20896  1.0000
  Rb  Rb7       1.0  0.54607  0.67320  0.29063  1.0000
  Rb  Rb8       1.0  0.96907  0.84004  0.71212  1.0000
  Rb  Rb9       1.0  0.46040  0.83136  0.71090  1.0000
  Rb  Rb10      1.0  0.97723  0.34854  0.70898  1.0000
  Rb  Rb11      1.0  0.12953  0.16083  0.78847  1.0000
  Rb  Rb12      1.0  0.87321  0.32763  0.21001  1.0000
  Rb  Rb13      1.0  0.87174  0.84003  0.21208  1.0000
  Rb  Rb14      1.0  0.03204  0.16066  0.28869  1.0000
  Rb  Rb15      1.0  0.02402  0.65207  0.29163  1.0000
  Rb  Rb16      1.0  0.45516  0.32755  0.71016  1.0000
  Bi  Bi1       1.0  0.29815  0.51467  0.61262  1.0000
  Bi  Bi2       1.0  0.95359  0.34993  0.96321  1.0000
  Bi  Bi3       1.0  0.21904  0.48487  0.37409  1.0000
  Bi  Bi4       1.0  0.73461  0.51597  0.12665  1.0000
  Bi  Bi5       1.0  0.40019  0.31075  0.95916  1.0000
  Bi  Bi6       1.0  0.89565  0.80667  0.96012  1.0000
  Bi  Bi7       1.0  0.70298  0.48617  0.38797  1.0000
  Bi  Bi8       1.0  0.78178  0.02181  0.62086  1.0000
  Bi  Bi9       1.0  0.71349  0.01026  0.11772  1.0000
  Bi  Bi10      1.0  0.21929  0.97897  0.37970  1.0000
  Bi  Bi11      1.0  0.10567  0.19440  0.04069  1.0000
  Bi  Bi12      1.0  0.29749  0.01028  0.61776  1.0000
  Bi  Bi13      1.0  0.39712  0.34992  0.46335  1.0000
  Bi  Bi14      1.0  0.76056  0.97906  0.87977  1.0000
  Bi  Bi15      1.0  0.45002  0.84778  0.96640  1.0000
  Bi  Bi16      1.0  0.91118  0.31069  0.45919  1.0000
  Bi  Bi17      1.0  0.21744  0.51490  0.11280  1.0000
  Bi  Bi18      1.0  0.24071  0.02189  0.12085  1.0000
  Bi  Bi19      1.0  0.70371  0.99054  0.38280  1.0000
  Bi  Bi20      1.0  0.28771  0.99061  0.88286  1.0000
  Bi  Bi21      1.0  0.55110  0.15293  0.03424  1.0000
  Bi  Bi22      1.0  0.39847  0.84768  0.46644  1.0000
  Bi  Bi23      1.0  0.26641  0.48493  0.87390  1.0000
  Bi  Bi24      1.0  0.60253  0.15304  0.53417  1.0000
  Bi  Bi25      1.0  0.60100  0.69012  0.04135  1.0000
  Bi  Bi26      1.0  0.60407  0.65091  0.53750  1.0000
  Bi  Bi27      1.0  0.78401  0.48614  0.88795  1.0000
  Bi  Bi28      1.0  0.08929  0.19418  0.54055  1.0000
  Bi  Bi29      1.0  0.78208  0.51592  0.62666  1.0000
  Bi  Bi30      1.0  0.04755  0.65083  0.03732  1.0000
  Bi  Bi31      1.0  0.08995  0.69019  0.54145  1.0000
  Bi  Bi32      1.0  0.91192  0.80665  0.46005  1.0000
  O   O1        1.0  0.28629  0.00061  0.25032  1.0000
  O   O2        1.0  0.97109  0.61909  0.65641  1.0000
  O   O3        1.0  0.35235  0.38181  0.84420  1.0000
  O   O4        1.0  0.27913  0.37102  0.02653  1.0000
  O   O5        1.0  0.28194  0.51794  0.24187  1.0000
  O   O6        1.0  0.41719  0.03167  0.46933  1.0000
  O   O7        1.0  0.77035  0.68303  0.61042  1.0000
  O   O8        1.0  0.11084  0.59681  0.14916  1.0000
  O   O9        1.0  0.11607  0.53532  0.96918  1.0000
  O   O10       1.0  0.51454  0.40417  0.35154  1.0000
  O   O11       1.0  0.08765  0.31791  0.88999  1.0000
  O   O12       1.0  0.41704  0.19262  0.10156  1.0000
  O   O13       1.0  0.58100  0.46548  0.53162  1.0000
  O   O14       1.0  0.25588  0.32156  0.61902  1.0000
  O   O15       1.0  0.74536  0.67934  0.38161  1.0000
  O   O16       1.0  0.71941  0.48329  0.75891  1.0000
  O   O17       1.0  0.09237  0.37078  0.52648  1.0000
  O   O18       1.0  0.77628  0.19258  0.60160  1.0000
  O   O19       1.0  0.61530  0.03173  0.96938  1.0000
  O   O20       1.0  0.58375  0.96904  0.53140  1.0000
  O   O21       1.0  0.56102  0.81951  0.11899  1.0000
  O   O22       1.0  0.22623  0.13388  0.97215  1.0000
  O   O23       1.0  0.72228  0.62997  0.97421  1.0000
  O   O24       1.0  0.23896  0.00023  0.75033  1.0000
  O   O25       1.0  0.58431  0.80826  0.89902  1.0000
  O   O26       1.0  0.64846  0.61884  0.15643  1.0000
  O   O27       1.0  0.48822  0.09733  0.64816  1.0000
  O   O28       1.0  0.44008  0.18139  0.88157  1.0000
  O   O29       1.0  0.22489  0.80824  0.39888  1.0000
  O   O30       1.0  0.91346  0.68284  0.11051  1.0000
  O   O31       1.0  0.23647  0.51776  0.74159  1.0000
  O   O32       1.0  0.48654  0.59658  0.64930  1.0000
  O   O33       1.0  0.25930  0.81960  0.61900  1.0000
  O   O34       1.0  0.51297  0.90350  0.35257  1.0000
  O   O35       1.0  0.93486  0.67927  0.88155  1.0000
  O   O36       1.0  0.23090  0.31795  0.39021  1.0000
  O   O37       1.0  0.74171  0.18117  0.38172  1.0000
  O   O38       1.0  0.15127  0.12186  0.15472  1.0000
  O   O39       1.0  0.77496  0.86697  0.02859  1.0000
  O   O40       1.0  0.38581  0.96891  0.03132  1.0000
  O   O41       1.0  0.90862  0.62995  0.47412  1.0000
  O   O42       1.0  0.71500  0.00042  0.75032  1.0000
  O   O43       1.0  0.88514  0.46534  0.03140  1.0000
  O   O44       1.0  0.02998  0.38172  0.34420  1.0000
  O   O45       1.0  0.76455  0.48327  0.25892  1.0000
  O   O46       1.0  0.42011  0.53533  0.46912  1.0000
  O   O47       1.0  0.60969  0.09716  0.14817  1.0000
  O   O48       1.0  0.89044  0.40413  0.85138  1.0000
  O   O49       1.0  0.84982  0.87884  0.84611  1.0000
  O   O50       1.0  0.76225  0.00065  0.25025  1.0000
  O   O51       1.0  0.90829  0.13384  0.47198  1.0000
  O   O52       1.0  0.06669  0.32173  0.11931  1.0000
  O   O53       1.0  0.09291  0.86708  0.52868  1.0000
  O   O54       1.0  0.02991  0.87874  0.34596  1.0000
  O   O55       1.0  0.97124  0.12191  0.65462  1.0000
  O   O56       1.0  0.39156  0.90375  0.85244  1.0000
