data_image0
_chemical_formula_structural       Ca16Mg16Ge16O64
_chemical_formula_sum              "Ca16 Mg16 Ge16 O64"
_cell_length_a       9.99832
_cell_length_b       12.7406
_cell_length_c       11.2462
_cell_angle_alpha    89.9997
_cell_angle_beta     90
_cell_angle_gamma    90.0016

_space_group_name_H-M_alt    "P 1"
_space_group_IT_number       1

loop_
  _space_group_symop_operation_xyz
  'x, y, z'

loop_
  _atom_site_type_symbol
  _atom_site_label
  _atom_site_symmetry_multiplicity
  _atom_site_fract_x
  _atom_site_fract_y
  _atom_site_fract_z
  _atom_site_occupancy
  Ca  Ca1       1.0  0.25644  0.12539  0.77454  1.0000
  Ca  Ca2       1.0  0.25644  0.62538  0.77461  1.0000
  Ca  Ca3       1.0  0.75647  0.12538  0.77451  1.0000
  Ca  Ca4       1.0  0.75646  0.62539  0.77459  1.0000
  Ca  Ca5       1.0  0.49456  0.12538  0.27451  1.0000
  Ca  Ca6       1.0  0.49452  0.62538  0.27458  1.0000
  Ca  Ca7       1.0  0.99451  0.12537  0.27452  1.0000
  Ca  Ca8       1.0  0.99450  0.62534  0.27458  1.0000
  Ca  Ca9       1.0  0.24454  0.37542  0.22629  1.0000
  Ca  Ca10      1.0  0.24453  0.87543  0.22632  1.0000
  Ca  Ca11      1.0  0.74453  0.37540  0.22630  1.0000
  Ca  Ca12      1.0  0.74453  0.87542  0.22634  1.0000
  Ca  Ca13      1.0  0.00645  0.37536  0.72627  1.0000
  Ca  Ca14      1.0  0.00643  0.87537  0.72636  1.0000
  Ca  Ca15      1.0  0.50649  0.37537  0.72629  1.0000
  Ca  Ca16      1.0  0.50642  0.87537  0.72630  1.0000
  Mg  Mg1       1.0  0.00050  0.25041  0.00038  1.0000
  Mg  Mg2       1.0  0.00040  0.75040  0.00046  1.0000
  Mg  Mg3       1.0  0.50049  0.25038  0.00040  1.0000
  Mg  Mg4       1.0  0.50042  0.75041  0.00042  1.0000
  Mg  Mg5       1.0  0.25047  0.00036  0.50045  1.0000
  Mg  Mg6       1.0  0.25050  0.50036  0.50049  1.0000
  Mg  Mg7       1.0  0.75045  0.00032  0.50046  1.0000
  Mg  Mg8       1.0  0.75049  0.50032  0.50046  1.0000
  Mg  Mg9       1.0  0.25051  0.25032  0.50037  1.0000
  Mg  Mg10      1.0  0.25054  0.75036  0.50042  1.0000
  Mg  Mg11      1.0  0.75051  0.25033  0.50038  1.0000
  Mg  Mg12      1.0  0.75057  0.75033  0.50043  1.0000
  Mg  Mg13      1.0  0.00054  0.00041  0.00046  1.0000
  Mg  Mg14      1.0  0.00056  0.50040  0.00044  1.0000
  Mg  Mg15      1.0  0.50050  0.00040  0.00042  1.0000
  Mg  Mg16      1.0  0.50055  0.50040  0.00045  1.0000
  Ge  Ge1       1.0  0.03938  0.12539  0.57991  1.0000
  Ge  Ge2       1.0  0.03943  0.62543  0.57998  1.0000
  Ge  Ge3       1.0  0.53939  0.12540  0.57992  1.0000
  Ge  Ge4       1.0  0.53944  0.62540  0.57998  1.0000
  Ge  Ge5       1.0  0.21163  0.12550  0.07991  1.0000
  Ge  Ge6       1.0  0.21157  0.62550  0.07993  1.0000
  Ge  Ge7       1.0  0.71164  0.12545  0.07987  1.0000
  Ge  Ge8       1.0  0.71157  0.62550  0.07996  1.0000
  Ge  Ge9       1.0  0.28942  0.37542  0.92094  1.0000
  Ge  Ge10      1.0  0.28935  0.87544  0.92098  1.0000
  Ge  Ge11      1.0  0.78942  0.37544  0.92098  1.0000
  Ge  Ge12      1.0  0.78936  0.87544  0.92103  1.0000
  Ge  Ge13      1.0  0.46162  0.37539  0.42096  1.0000
  Ge  Ge14      1.0  0.46164  0.87541  0.42095  1.0000
  Ge  Ge15      1.0  0.96164  0.37536  0.42095  1.0000
  Ge  Ge16      1.0  0.96162  0.87539  0.42097  1.0000
  O   O1        1.0  0.13245  0.23496  0.14724  1.0000
  O   O2        1.0  0.13240  0.73497  0.14726  1.0000
  O   O3        1.0  0.63248  0.23494  0.14720  1.0000
  O   O4        1.0  0.63237  0.73496  0.14730  1.0000
  O   O5        1.0  0.38252  0.26586  0.35359  1.0000
  O   O6        1.0  0.38252  0.76589  0.35364  1.0000
  O   O7        1.0  0.88248  0.26585  0.35360  1.0000
  O   O8        1.0  0.88253  0.76587  0.35366  1.0000
  O   O9        1.0  0.37919  0.37538  0.05866  1.0000
  O   O10       1.0  0.37915  0.87542  0.05868  1.0000
  O   O11       1.0  0.87926  0.37540  0.05869  1.0000
  O   O12       1.0  0.87916  0.87543  0.05872  1.0000
  O   O13       1.0  0.11849  0.01585  0.64725  1.0000
  O   O14       1.0  0.11851  0.51588  0.64726  1.0000
  O   O15       1.0  0.61849  0.01585  0.64725  1.0000
  O   O16       1.0  0.61857  0.51587  0.64727  1.0000
  O   O17       1.0  0.11853  0.23489  0.64722  1.0000
  O   O18       1.0  0.11859  0.73491  0.64729  1.0000
  O   O19       1.0  0.61854  0.23488  0.64722  1.0000
  O   O20       1.0  0.61856  0.73491  0.64729  1.0000
  O   O21       1.0  0.36505  0.12536  0.57896  1.0000
  O   O22       1.0  0.36511  0.62537  0.57898  1.0000
  O   O23       1.0  0.86505  0.12536  0.57893  1.0000
  O   O24       1.0  0.86510  0.62538  0.57901  1.0000
  O   O25       1.0  0.38246  0.48489  0.35361  1.0000
  O   O26       1.0  0.38252  0.98491  0.35363  1.0000
  O   O27       1.0  0.88249  0.48488  0.35363  1.0000
  O   O28       1.0  0.88249  0.98488  0.35362  1.0000
  O   O29       1.0  0.11510  0.37542  0.92189  1.0000
  O   O30       1.0  0.11501  0.87543  0.92192  1.0000
  O   O31       1.0  0.61510  0.37542  0.92190  1.0000
  O   O32       1.0  0.61501  0.87539  0.92194  1.0000
  O   O33       1.0  0.37182  0.37535  0.55864  1.0000
  O   O34       1.0  0.37182  0.87539  0.55867  1.0000
  O   O35       1.0  0.87181  0.37534  0.55864  1.0000
  O   O36       1.0  0.87182  0.87537  0.55867  1.0000
  O   O37       1.0  0.13253  0.01595  0.14723  1.0000
  O   O38       1.0  0.13247  0.51596  0.14724  1.0000
  O   O39       1.0  0.63250  0.01592  0.14720  1.0000
  O   O40       1.0  0.63251  0.51593  0.14727  1.0000
  O   O41       1.0  0.36853  0.26590  0.85358  1.0000
  O   O42       1.0  0.36843  0.76590  0.85366  1.0000
  O   O43       1.0  0.86850  0.26589  0.85364  1.0000
  O   O44       1.0  0.86846  0.76591  0.85369  1.0000
  O   O45       1.0  0.13596  0.37534  0.42191  1.0000
  O   O46       1.0  0.13596  0.87538  0.42191  1.0000
  O   O47       1.0  0.63593  0.37536  0.42190  1.0000
  O   O48       1.0  0.63599  0.87536  0.42194  1.0000
  O   O49       1.0  0.38596  0.12542  0.07890  1.0000
  O   O50       1.0  0.38589  0.62541  0.07896  1.0000
  O   O51       1.0  0.88596  0.12541  0.07893  1.0000
  O   O52       1.0  0.88590  0.62544  0.07899  1.0000
  O   O53       1.0  0.36857  0.48492  0.85362  1.0000
  O   O54       1.0  0.36851  0.98492  0.85361  1.0000
  O   O55       1.0  0.86858  0.48492  0.85363  1.0000
  O   O56       1.0  0.86848  0.98492  0.85365  1.0000
  O   O57       1.0  0.12182  0.12544  0.94219  1.0000
  O   O58       1.0  0.12178  0.62545  0.94225  1.0000
  O   O59       1.0  0.62181  0.12541  0.94216  1.0000
  O   O60       1.0  0.62179  0.62544  0.94225  1.0000
  O   O61       1.0  0.12916  0.12534  0.44218  1.0000
  O   O62       1.0  0.12918  0.62539  0.44224  1.0000
  O   O63       1.0  0.62916  0.12533  0.44218  1.0000
  O   O64       1.0  0.62920  0.62536  0.44221  1.0000
