data_image0
_chemical_formula_structural       Ba8Y16Si24O80
_chemical_formula_sum              "Ba8 Y16 Si24 O80"
_cell_length_a       12.2146
_cell_length_b       10.8422
_cell_length_c       13.26
_cell_angle_alpha    96.5514
_cell_angle_beta     89.9988
_cell_angle_gamma    89.999

_space_group_name_H-M_alt    "P 1"
_space_group_IT_number       1

loop_
  _space_group_symop_operation_xyz
  'x, y, z'

loop_
  _atom_site_type_symbol
  _atom_site_label
  _atom_site_symmetry_multiplicity
  _atom_site_fract_x
  _atom_site_fract_y
  _atom_site_fract_z
  _atom_site_occupancy
  Ba  Ba1       1.0  0.75043  0.62543  0.49105  1.0000
  Ba  Ba2       1.0  0.75046  0.87539  0.99105  1.0000
  Ba  Ba3       1.0  0.75038  0.12541  0.49100  1.0000
  Ba  Ba4       1.0  0.75039  0.37531  0.99104  1.0000
  Ba  Ba5       1.0  0.25038  0.12551  0.00967  1.0000
  Ba  Ba6       1.0  0.25034  0.37553  0.50967  1.0000
  Ba  Ba7       1.0  0.25041  0.62556  0.00967  1.0000
  Ba  Ba8       1.0  0.25043  0.87557  0.50965  1.0000
  Y   Y1        1.0  0.59982  0.15796  0.15855  1.0000
  Y   Y2        1.0  0.59979  0.40805  0.65859  1.0000
  Y   Y3        1.0  0.59979  0.65797  0.15853  1.0000
  Y   Y4        1.0  0.59979  0.90795  0.65854  1.0000
  Y   Y5        1.0  0.90097  0.15805  0.15859  1.0000
  Y   Y6        1.0  0.90094  0.40805  0.65862  1.0000
  Y   Y7        1.0  0.90093  0.65796  0.15862  1.0000
  Y   Y8        1.0  0.90094  0.90806  0.65859  1.0000
  Y   Y9        1.0  0.09984  0.59296  0.34214  1.0000
  Y   Y10       1.0  0.09978  0.84292  0.84217  1.0000
  Y   Y11       1.0  0.09977  0.09292  0.34215  1.0000
  Y   Y12       1.0  0.09981  0.34300  0.84213  1.0000
  Y   Y13       1.0  0.40096  0.59287  0.34207  1.0000
  Y   Y14       1.0  0.40095  0.84292  0.84214  1.0000
  Y   Y15       1.0  0.40093  0.09298  0.34211  1.0000
  Y   Y16       1.0  0.40094  0.34286  0.84211  1.0000
  Si  Si1       1.0  0.06134  0.40176  0.10699  1.0000
  Si  Si2       1.0  0.06140  0.65176  0.60702  1.0000
  Si  Si3       1.0  0.06141  0.90172  0.10703  1.0000
  Si  Si4       1.0  0.06139  0.15176  0.60702  1.0000
  Si  Si5       1.0  0.25030  0.33178  0.24451  1.0000
  Si  Si6       1.0  0.25042  0.58180  0.74451  1.0000
  Si  Si7       1.0  0.25044  0.83182  0.24456  1.0000
  Si  Si8       1.0  0.25035  0.08181  0.74459  1.0000
  Si  Si9       1.0  0.75033  0.41911  0.25616  1.0000
  Si  Si10      1.0  0.75038  0.66917  0.75620  1.0000
  Si  Si11      1.0  0.75037  0.91908  0.25613  1.0000
  Si  Si12      1.0  0.75032  0.16912  0.75612  1.0000
  Si  Si13      1.0  0.43929  0.40160  0.10696  1.0000
  Si  Si14      1.0  0.43941  0.65177  0.60694  1.0000
  Si  Si15      1.0  0.43942  0.90169  0.10700  1.0000
  Si  Si16      1.0  0.43932  0.15164  0.60698  1.0000
  Si  Si17      1.0  0.56137  0.34923  0.39375  1.0000
  Si  Si18      1.0  0.56140  0.59922  0.89371  1.0000
  Si  Si19      1.0  0.56133  0.84916  0.39365  1.0000
  Si  Si20      1.0  0.56138  0.09919  0.89369  1.0000
  Si  Si21      1.0  0.93932  0.34926  0.39373  1.0000
  Si  Si22      1.0  0.93935  0.59922  0.89376  1.0000
  Si  Si23      1.0  0.93934  0.84921  0.39371  1.0000
  Si  Si24      1.0  0.93934  0.09931  0.89371  1.0000
  O   O1        1.0  0.45008  0.53692  0.17611  1.0000
  O   O2        1.0  0.45013  0.78704  0.67617  1.0000
  O   O3        1.0  0.45016  0.03700  0.17619  1.0000
  O   O4        1.0  0.45015  0.28695  0.67614  1.0000
  O   O5        1.0  0.14331  0.31231  0.16948  1.0000
  O   O6        1.0  0.14332  0.56232  0.66960  1.0000
  O   O7        1.0  0.14344  0.81233  0.16953  1.0000
  O   O8        1.0  0.14330  0.06237  0.66962  1.0000
  O   O9        1.0  0.85738  0.43859  0.33111  1.0000
  O   O10       1.0  0.85740  0.68866  0.83121  1.0000
  O   O11       1.0  0.85741  0.93858  0.33110  1.0000
  O   O12       1.0  0.85731  0.18863  0.83114  1.0000
  O   O13       1.0  0.35738  0.31220  0.16958  1.0000
  O   O14       1.0  0.35739  0.56235  0.66944  1.0000
  O   O15       1.0  0.35749  0.81226  0.16958  1.0000
  O   O16       1.0  0.35738  0.06229  0.66960  1.0000
  O   O17       1.0  0.37821  0.41928  0.00141  1.0000
  O   O18       1.0  0.37849  0.66957  0.50132  1.0000
  O   O19       1.0  0.37840  0.91945  0.00143  1.0000
  O   O20       1.0  0.37824  0.16936  0.50143  1.0000
  O   O21       1.0  0.87829  0.33159  0.49932  1.0000
  O   O22       1.0  0.87836  0.58142  0.99933  1.0000
  O   O23       1.0  0.87834  0.83158  0.49932  1.0000
  O   O24       1.0  0.87838  0.08158  0.99931  1.0000
  O   O25       1.0  0.05536  0.41987  0.40466  1.0000
  O   O26       1.0  0.05539  0.66985  0.90468  1.0000
  O   O27       1.0  0.05541  0.91978  0.40462  1.0000
  O   O28       1.0  0.05533  0.17000  0.90466  1.0000
  O   O29       1.0  0.95007  0.21390  0.32459  1.0000
  O   O30       1.0  0.95013  0.46394  0.82455  1.0000
  O   O31       1.0  0.95004  0.71385  0.32460  1.0000
  O   O32       1.0  0.95014  0.96396  0.82458  1.0000
  O   O33       1.0  0.55057  0.21394  0.32453  1.0000
  O   O34       1.0  0.55057  0.46395  0.82449  1.0000
  O   O35       1.0  0.55055  0.71388  0.32442  1.0000
  O   O36       1.0  0.55063  0.96391  0.82447  1.0000
  O   O37       1.0  0.25033  0.46843  0.30790  1.0000
  O   O38       1.0  0.25041  0.71842  0.80795  1.0000
  O   O39       1.0  0.25037  0.96848  0.30793  1.0000
  O   O40       1.0  0.25036  0.21845  0.80798  1.0000
  O   O41       1.0  0.12226  0.41959  0.00139  1.0000
  O   O42       1.0  0.12243  0.66949  0.50145  1.0000
  O   O43       1.0  0.12233  0.91952  0.00143  1.0000
  O   O44       1.0  0.12237  0.16948  0.50143  1.0000
  O   O45       1.0  0.55532  0.33096  0.09594  1.0000
  O   O46       1.0  0.55544  0.58112  0.59607  1.0000
  O   O47       1.0  0.55545  0.83108  0.09603  1.0000
  O   O48       1.0  0.55532  0.08094  0.59596  1.0000
  O   O49       1.0  0.25028  0.22097  0.31706  1.0000
  O   O50       1.0  0.25048  0.47094  0.81701  1.0000
  O   O51       1.0  0.25038  0.72097  0.31707  1.0000
  O   O52       1.0  0.25034  0.97095  0.81709  1.0000
  O   O53       1.0  0.64332  0.43862  0.33118  1.0000
  O   O54       1.0  0.64332  0.68869  0.83115  1.0000
  O   O55       1.0  0.64336  0.93854  0.33114  1.0000
  O   O56       1.0  0.64328  0.18862  0.83110  1.0000
  O   O57       1.0  0.75031  0.52992  0.18362  1.0000
  O   O58       1.0  0.75043  0.77999  0.68366  1.0000
  O   O59       1.0  0.75037  0.02996  0.18364  1.0000
  O   O60       1.0  0.75037  0.28000  0.68363  1.0000
  O   O61       1.0  0.94533  0.33109  0.09609  1.0000
  O   O62       1.0  0.94535  0.58114  0.59607  1.0000
  O   O63       1.0  0.94539  0.83105  0.09614  1.0000
  O   O64       1.0  0.94533  0.08118  0.59605  1.0000
  O   O65       1.0  0.75032  0.28245  0.19279  1.0000
  O   O66       1.0  0.75035  0.53251  0.69282  1.0000
  O   O67       1.0  0.75035  0.78243  0.19275  1.0000
  O   O68       1.0  0.75036  0.03249  0.69269  1.0000
  O   O69       1.0  0.44534  0.41988  0.40473  1.0000
  O   O70       1.0  0.44538  0.66990  0.90474  1.0000
  O   O71       1.0  0.44532  0.91985  0.40454  1.0000
  O   O72       1.0  0.44533  0.16979  0.90468  1.0000
  O   O73       1.0  0.62236  0.33144  0.49933  1.0000
  O   O74       1.0  0.62243  0.58142  0.99926  1.0000
  O   O75       1.0  0.62225  0.83132  0.49925  1.0000
  O   O76       1.0  0.62239  0.08141  0.99926  1.0000
  O   O77       1.0  0.05060  0.53702  0.17624  1.0000
  O   O78       1.0  0.05061  0.78706  0.67619  1.0000
  O   O79       1.0  0.05061  0.03704  0.17619  1.0000
  O   O80       1.0  0.05065  0.28707  0.67621  1.0000
