data_image0
_chemical_formula_structural       Cs16Li24Ga8O32
_chemical_formula_sum              "Cs16 Li24 Ga8 O32"
_cell_length_a       10.0591
_cell_length_b       10.0053
_cell_length_c       11.8455
_cell_angle_alpha    90.0092
_cell_angle_beta     89.9825
_cell_angle_gamma    90.0002

_space_group_name_H-M_alt    "P 1"
_space_group_IT_number       1

loop_
  _space_group_symop_operation_xyz
  'x, y, z'

loop_
  _atom_site_type_symbol
  _atom_site_label
  _atom_site_symmetry_multiplicity
  _atom_site_fract_x
  _atom_site_fract_y
  _atom_site_fract_z
  _atom_site_occupancy
  Cs  Cs1       1.0  0.12014  0.37281  0.00039  1.0000
  Cs  Cs2       1.0  0.62005  0.37303  0.00053  1.0000
  Cs  Cs3       1.0  0.36970  0.87249  0.50026  1.0000
  Cs  Cs4       1.0  0.86977  0.87276  0.50054  1.0000
  Cs  Cs5       1.0  0.13103  0.12810  0.50052  1.0000
  Cs  Cs6       1.0  0.63073  0.12810  0.50019  1.0000
  Cs  Cs7       1.0  0.38114  0.62832  0.00018  1.0000
  Cs  Cs8       1.0  0.88127  0.62830  0.00044  1.0000
  Cs  Cs9       1.0  0.88088  0.37258  0.50060  1.0000
  Cs  Cs10      1.0  0.38091  0.37286  0.50046  1.0000
  Cs  Cs11      1.0  0.13123  0.87299  0.00028  1.0000
  Cs  Cs12      1.0  0.63111  0.87270  0.00021  1.0000
  Cs  Cs13      1.0  0.37020  0.12835  0.00041  1.0000
  Cs  Cs14      1.0  0.86989  0.12832  0.00063  1.0000
  Cs  Cs15      1.0  0.61990  0.62814  0.50045  1.0000
  Cs  Cs16      1.0  0.11968  0.62804  0.50026  1.0000
  Li  Li1       1.0  0.25053  0.24082  0.25042  1.0000
  Li  Li2       1.0  0.75056  0.24074  0.25054  1.0000
  Li  Li3       1.0  0.50045  0.74070  0.75022  1.0000
  Li  Li4       1.0  0.00040  0.74061  0.75043  1.0000
  Li  Li5       1.0  0.00031  0.74062  0.25029  1.0000
  Li  Li6       1.0  0.50040  0.74078  0.25039  1.0000
  Li  Li7       1.0  0.25050  0.24075  0.75045  1.0000
  Li  Li8       1.0  0.75038  0.24074  0.75047  1.0000
  Li  Li9       1.0  0.25031  0.76039  0.25017  1.0000
  Li  Li10      1.0  0.75033  0.76036  0.25033  1.0000
  Li  Li11      1.0  0.50047  0.26028  0.75053  1.0000
  Li  Li12      1.0  0.00045  0.26020  0.75057  1.0000
  Li  Li13      1.0  0.25042  0.00059  0.25039  1.0000
  Li  Li14      1.0  0.75042  0.00046  0.25032  1.0000
  Li  Li15      1.0  0.50054  0.50050  0.75034  1.0000
  Li  Li16      1.0  0.00055  0.50036  0.75037  1.0000
  Li  Li17      1.0  0.00056  0.26022  0.25050  1.0000
  Li  Li18      1.0  0.50055  0.26041  0.25033  1.0000
  Li  Li19      1.0  0.25036  0.76034  0.75034  1.0000
  Li  Li20      1.0  0.75046  0.76040  0.75028  1.0000
  Li  Li21      1.0  0.00050  0.50039  0.25037  1.0000
  Li  Li22      1.0  0.50051  0.50055  0.25038  1.0000
  Li  Li23      1.0  0.25046  0.00050  0.75060  1.0000
  Li  Li24      1.0  0.75044  0.00055  0.75049  1.0000
  Ga  Ga1       1.0  0.00044  0.00048  0.75054  1.0000
  Ga  Ga2       1.0  0.50047  0.00047  0.75043  1.0000
  Ga  Ga3       1.0  0.25057  0.50065  0.25029  1.0000
  Ga  Ga4       1.0  0.75050  0.50059  0.25047  1.0000
  Ga  Ga5       1.0  0.00045  0.00045  0.25039  1.0000
  Ga  Ga6       1.0  0.50041  0.00063  0.25033  1.0000
  Ga  Ga7       1.0  0.25054  0.50063  0.75039  1.0000
  Ga  Ga8       1.0  0.75052  0.50064  0.75040  1.0000
  O   O1        1.0  0.38359  0.88253  0.17659  1.0000
  O   O2        1.0  0.88362  0.88238  0.17656  1.0000
  O   O3        1.0  0.63368  0.38243  0.67672  1.0000
  O   O4        1.0  0.13377  0.38231  0.67678  1.0000
  O   O5        1.0  0.11720  0.88227  0.32402  1.0000
  O   O6        1.0  0.61713  0.88244  0.32400  1.0000
  O   O7        1.0  0.36738  0.38256  0.82412  1.0000
  O   O8        1.0  0.86724  0.38245  0.82405  1.0000
  O   O9        1.0  0.13367  0.61855  0.17650  1.0000
  O   O10       1.0  0.63368  0.61859  0.17667  1.0000
  O   O11       1.0  0.38362  0.11856  0.67687  1.0000
  O   O12       1.0  0.88362  0.11855  0.67686  1.0000
  O   O13       1.0  0.11727  0.88239  0.67680  1.0000
  O   O14       1.0  0.61730  0.88244  0.67658  1.0000
  O   O15       1.0  0.36739  0.38249  0.17656  1.0000
  O   O16       1.0  0.86732  0.38235  0.17681  1.0000
  O   O17       1.0  0.86727  0.61869  0.32415  1.0000
  O   O18       1.0  0.36724  0.61874  0.32409  1.0000
  O   O19       1.0  0.11722  0.11860  0.82425  1.0000
  O   O20       1.0  0.61719  0.11855  0.82424  1.0000
  O   O21       1.0  0.13376  0.38250  0.32402  1.0000
  O   O22       1.0  0.63360  0.38248  0.32414  1.0000
  O   O23       1.0  0.38369  0.88229  0.82412  1.0000
  O   O24       1.0  0.88354  0.88232  0.82413  1.0000
  O   O25       1.0  0.13360  0.61866  0.82410  1.0000
  O   O26       1.0  0.63363  0.61879  0.82402  1.0000
  O   O27       1.0  0.38361  0.11871  0.32413  1.0000
  O   O28       1.0  0.88358  0.11853  0.32413  1.0000
  O   O29       1.0  0.11732  0.11859  0.17674  1.0000
  O   O30       1.0  0.61731  0.11868  0.17670  1.0000
  O   O31       1.0  0.36734  0.61866  0.67654  1.0000
  O   O32       1.0  0.86736  0.61859  0.67655  1.0000
