data_image0
_chemical_formula_structural       Cs24Ta8O64
_chemical_formula_sum              "Cs24 Ta8 O64"
_cell_length_a       12.4651
_cell_length_b       11.141
_cell_length_c       13.3932
_cell_angle_alpha    84.8111
_cell_angle_beta     82.811
_cell_angle_gamma    92.7859

_space_group_name_H-M_alt    "P 1"
_space_group_IT_number       1

loop_
  _space_group_symop_operation_xyz
  'x, y, z'

loop_
  _atom_site_type_symbol
  _atom_site_label
  _atom_site_symmetry_multiplicity
  _atom_site_fract_x
  _atom_site_fract_y
  _atom_site_fract_z
  _atom_site_occupancy
  Cs  Cs1       1.0  0.87526  0.25044  0.18776  1.0000
  Cs  Cs2       1.0  0.87534  0.25038  0.68789  1.0000
  Cs  Cs3       1.0  0.37555  0.25045  0.43786  1.0000
  Cs  Cs4       1.0  0.37541  0.25038  0.93787  1.0000
  Cs  Cs5       1.0  0.12546  0.75033  0.31294  1.0000
  Cs  Cs6       1.0  0.12552  0.75042  0.81278  1.0000
  Cs  Cs7       1.0  0.62514  0.75028  0.56300  1.0000
  Cs  Cs8       1.0  0.62543  0.75059  0.06285  1.0000
  Cs  Cs9       1.0  0.18782  0.12534  0.21901  1.0000
  Cs  Cs10      1.0  0.18803  0.12544  0.71902  1.0000
  Cs  Cs11      1.0  0.68797  0.12520  0.46896  1.0000
  Cs  Cs12      1.0  0.68783  0.12548  0.96917  1.0000
  Cs  Cs13      1.0  0.43796  0.62547  0.34406  1.0000
  Cs  Cs14      1.0  0.43782  0.62537  0.84433  1.0000
  Cs  Cs15      1.0  0.93772  0.62542  0.59421  1.0000
  Cs  Cs16      1.0  0.93804  0.62537  0.09405  1.0000
  Cs  Cs17      1.0  0.06282  0.37545  0.90660  1.0000
  Cs  Cs18      1.0  0.06292  0.37528  0.40667  1.0000
  Cs  Cs19      1.0  0.56286  0.37560  0.15675  1.0000
  Cs  Cs20      1.0  0.56285  0.37525  0.65660  1.0000
  Cs  Cs21      1.0  0.31295  0.87544  0.03162  1.0000
  Cs  Cs22      1.0  0.31277  0.87569  0.53167  1.0000
  Cs  Cs23      1.0  0.81306  0.87532  0.28147  1.0000
  Cs  Cs24      1.0  0.81296  0.87522  0.78157  1.0000
  Ta  Ta1       1.0  0.00042  0.00048  0.00025  1.0000
  Ta  Ta2       1.0  0.00037  0.00035  0.50037  1.0000
  Ta  Ta3       1.0  0.50041  0.00046  0.25040  1.0000
  Ta  Ta4       1.0  0.50039  0.00040  0.75047  1.0000
  Ta  Ta5       1.0  0.25042  0.50039  0.12542  1.0000
  Ta  Ta6       1.0  0.25046  0.50046  0.62533  1.0000
  Ta  Ta7       1.0  0.75044  0.50041  0.37536  1.0000
  Ta  Ta8       1.0  0.75031  0.50038  0.87544  1.0000
  O   O1        1.0  0.35882  0.02540  0.83368  1.0000
  O   O2        1.0  0.35874  0.02527  0.33349  1.0000
  O   O3        1.0  0.85883  0.02521  0.08347  1.0000
  O   O4        1.0  0.85887  0.02543  0.58354  1.0000
  O   O5        1.0  0.60878  0.52525  0.95874  1.0000
  O   O6        1.0  0.60890  0.52537  0.45855  1.0000
  O   O7        1.0  0.10890  0.52518  0.20872  1.0000
  O   O8        1.0  0.10886  0.52533  0.70849  1.0000
  O   O9        1.0  0.80337  0.39425  0.99207  1.0000
  O   O10       1.0  0.80343  0.39428  0.49206  1.0000
  O   O11       1.0  0.30348  0.39440  0.24220  1.0000
  O   O12       1.0  0.30344  0.39454  0.74218  1.0000
  O   O13       1.0  0.05343  0.89444  0.11702  1.0000
  O   O14       1.0  0.05326  0.89426  0.61718  1.0000
  O   O15       1.0  0.55341  0.89460  0.36724  1.0000
  O   O16       1.0  0.55321  0.89430  0.86724  1.0000
  O   O17       1.0  0.82742  0.34640  0.38890  1.0000
  O   O18       1.0  0.82738  0.34640  0.88887  1.0000
  O   O19       1.0  0.32753  0.34655  0.63904  1.0000
  O   O20       1.0  0.32742  0.34647  0.13905  1.0000
  O   O21       1.0  0.07723  0.84629  0.51404  1.0000
  O   O22       1.0  0.07739  0.84654  0.01384  1.0000
  O   O23       1.0  0.57733  0.84641  0.76406  1.0000
  O   O24       1.0  0.57744  0.84653  0.26412  1.0000
  O   O25       1.0  0.05243  0.15446  0.05128  1.0000
  O   O26       1.0  0.05260  0.15428  0.55130  1.0000
  O   O27       1.0  0.55240  0.15451  0.30129  1.0000
  O   O28       1.0  0.55267  0.15436  0.80134  1.0000
  O   O29       1.0  0.30260  0.65440  0.17631  1.0000
  O   O30       1.0  0.30252  0.65445  0.67632  1.0000
  O   O31       1.0  0.80252  0.65434  0.42635  1.0000
  O   O32       1.0  0.80247  0.65438  0.92634  1.0000
  O   O33       1.0  0.76285  0.47572  0.22755  1.0000
  O   O34       1.0  0.76269  0.47561  0.72768  1.0000
  O   O35       1.0  0.26295  0.47558  0.47755  1.0000
  O   O36       1.0  0.26281  0.47544  0.97765  1.0000
  O   O37       1.0  0.01287  0.97551  0.35259  1.0000
  O   O38       1.0  0.01298  0.97556  0.85246  1.0000
  O   O39       1.0  0.51289  0.97554  0.60271  1.0000
  O   O40       1.0  0.51290  0.97549  0.10265  1.0000
  O   O41       1.0  0.95529  0.09063  0.37178  1.0000
  O   O42       1.0  0.95538  0.09068  0.87166  1.0000
  O   O43       1.0  0.45530  0.09066  0.62193  1.0000
  O   O44       1.0  0.45534  0.09065  0.12178  1.0000
  O   O45       1.0  0.20540  0.59072  0.49675  1.0000
  O   O46       1.0  0.20524  0.59057  0.99682  1.0000
  O   O47       1.0  0.70511  0.59073  0.74691  1.0000
  O   O48       1.0  0.70522  0.59076  0.24685  1.0000
  O   O49       1.0  0.14364  0.10662  0.98170  1.0000
  O   O50       1.0  0.14372  0.10624  0.48173  1.0000
  O   O51       1.0  0.64364  0.10662  0.23179  1.0000
  O   O52       1.0  0.64380  0.10622  0.73185  1.0000
  O   O53       1.0  0.39371  0.60635  0.10673  1.0000
  O   O54       1.0  0.39371  0.60650  0.60679  1.0000
  O   O55       1.0  0.89376  0.60634  0.35688  1.0000
  O   O56       1.0  0.89360  0.60636  0.85679  1.0000
  O   O57       1.0  0.09924  0.41011  0.15590  1.0000
  O   O58       1.0  0.09928  0.41020  0.65573  1.0000
  O   O59       1.0  0.59923  0.41027  0.40577  1.0000
  O   O60       1.0  0.59913  0.41018  0.90592  1.0000
  O   O61       1.0  0.34933  0.91010  0.28072  1.0000
  O   O62       1.0  0.34908  0.91031  0.78090  1.0000
  O   O63       1.0  0.84913  0.91025  0.53087  1.0000
  O   O64       1.0  0.84928  0.91015  0.03063  1.0000
