data_image0
_chemical_formula_structural       Cs88Rb56O24
_chemical_formula_sum              "Cs88 Rb56 O24"
_cell_length_a       18.2806
_cell_length_b       22.1704
_cell_length_c       32.7202
_cell_angle_alpha    89.9895
_cell_angle_beta     90.0002
_cell_angle_gamma    89.9971

_space_group_name_H-M_alt    "P 1"
_space_group_IT_number       1

loop_
  _space_group_symop_operation_xyz
  'x, y, z'

loop_
  _atom_site_type_symbol
  _atom_site_label
  _atom_site_symmetry_multiplicity
  _atom_site_fract_x
  _atom_site_fract_y
  _atom_site_fract_z
  _atom_site_occupancy
  Cs  Cs1       1.0  0.26949  0.75724  0.33326  1.0000
  Cs  Cs2       1.0  0.76945  0.75737  0.33340  1.0000
  Cs  Cs3       1.0  0.22921  0.55218  0.66240  1.0000
  Cs  Cs4       1.0  0.72914  0.55213  0.66241  1.0000
  Cs  Cs5       1.0  0.01187  0.45566  0.76962  1.0000
  Cs  Cs6       1.0  0.51174  0.45577  0.76963  1.0000
  Cs  Cs7       1.0  0.49077  0.76048  0.33340  1.0000
  Cs  Cs8       1.0  0.99070  0.76046  0.33332  1.0000
  Cs  Cs9       1.0  0.25978  0.23998  0.83342  1.0000
  Cs  Cs10      1.0  0.75979  0.23995  0.83341  1.0000
  Cs  Cs11      1.0  0.23130  0.25745  0.16689  1.0000
  Cs  Cs12      1.0  0.73122  0.25734  0.16688  1.0000
  Cs  Cs13      1.0  0.26292  0.96340  0.95033  1.0000
  Cs  Cs14      1.0  0.76290  0.96353  0.95027  1.0000
  Cs  Cs15      1.0  0.01304  0.53707  0.04995  1.0000
  Cs  Cs16      1.0  0.51301  0.53705  0.05001  1.0000
  Cs  Cs17      1.0  0.12741  0.63106  0.57770  1.0000
  Cs  Cs18      1.0  0.62733  0.63098  0.57757  1.0000
  Cs  Cs19      1.0  0.12557  0.59524  0.15905  1.0000
  Cs  Cs20      1.0  0.62562  0.59515  0.15912  1.0000
  Cs  Cs21      1.0  0.27146  0.05216  0.83788  1.0000
  Cs  Cs22      1.0  0.77145  0.05228  0.83791  1.0000
  Cs  Cs23      1.0  0.37334  0.13093  0.92271  1.0000
  Cs  Cs24      1.0  0.87347  0.13101  0.92263  1.0000
  Cs  Cs25      1.0  0.26602  0.95348  0.72952  1.0000
  Cs  Cs26      1.0  0.76587  0.95338  0.72953  1.0000
  Cs  Cs27      1.0  0.12334  0.37758  0.25063  1.0000
  Cs  Cs28      1.0  0.62340  0.37754  0.25069  1.0000
  Cs  Cs29      1.0  0.27357  0.94616  0.33810  1.0000
  Cs  Cs30      1.0  0.77367  0.94627  0.33812  1.0000
  Cs  Cs31      1.0  0.12328  0.36950  0.07763  1.0000
  Cs  Cs32      1.0  0.62329  0.36941  0.07760  1.0000
  Cs  Cs33      1.0  0.01965  0.74315  0.66698  1.0000
  Cs  Cs34      1.0  0.51949  0.74314  0.66685  1.0000
  Cs  Cs35      1.0  0.47916  0.94823  0.33792  1.0000
  Cs  Cs36      1.0  0.97912  0.94828  0.33787  1.0000
  Cs  Cs37      1.0  0.02144  0.44830  0.16235  1.0000
  Cs  Cs38      1.0  0.52143  0.44829  0.16243  1.0000
  Cs  Cs39      1.0  0.02387  0.55423  0.66217  1.0000
  Cs  Cs40      1.0  0.52358  0.55416  0.66214  1.0000
  Cs  Cs41      1.0  0.37324  0.12295  0.74969  1.0000
  Cs  Cs42      1.0  0.87322  0.12295  0.74965  1.0000
  Cs  Cs43      1.0  0.01491  0.46315  0.55033  1.0000
  Cs  Cs44      1.0  0.51487  0.46310  0.55030  1.0000
  Cs  Cs45      1.0  0.48744  0.03695  0.45034  1.0000
  Cs  Cs46      1.0  0.98745  0.03701  0.45030  1.0000
  Cs  Cs47      1.0  0.23471  0.45333  0.77079  1.0000
  Cs  Cs48      1.0  0.73452  0.45331  0.77078  1.0000
  Cs  Cs49      1.0  0.26483  0.03730  0.44995  1.0000
  Cs  Cs50      1.0  0.76489  0.03738  0.44996  1.0000
  Cs  Cs51      1.0  0.37478  0.09516  0.34120  1.0000
  Cs  Cs52      1.0  0.87490  0.09511  0.34121  1.0000
  Cs  Cs53      1.0  0.37559  0.90529  0.84118  1.0000
  Cs  Cs54      1.0  0.87561  0.90522  0.84123  1.0000
  Cs  Cs55      1.0  0.47689  0.05410  0.83814  1.0000
  Cs  Cs56      1.0  0.97697  0.05419  0.83813  1.0000
  Cs  Cs57      1.0  0.23886  0.54475  0.26952  1.0000
  Cs  Cs58      1.0  0.73889  0.54473  0.26959  1.0000
  Cs  Cs59      1.0  0.37718  0.86938  0.42261  1.0000
  Cs  Cs60      1.0  0.87732  0.86945  0.42262  1.0000
  Cs  Cs61      1.0  0.22697  0.44635  0.16210  1.0000
  Cs  Cs62      1.0  0.72696  0.44634  0.16217  1.0000
  Cs  Cs63      1.0  0.26181  0.04470  0.23064  1.0000
  Cs  Cs64      1.0  0.76175  0.04490  0.23071  1.0000
  Cs  Cs65      1.0  0.23569  0.53743  0.05026  1.0000
  Cs  Cs66      1.0  0.73561  0.53741  0.05033  1.0000
  Cs  Cs67      1.0  0.48875  0.95576  0.73066  1.0000
  Cs  Cs68      1.0  0.98869  0.95569  0.73066  1.0000
  Cs  Cs69      1.0  0.23755  0.46339  0.54998  1.0000
  Cs  Cs70      1.0  0.73752  0.46328  0.55007  1.0000
  Cs  Cs71      1.0  0.12493  0.40533  0.65908  1.0000
  Cs  Cs72      1.0  0.62474  0.40526  0.65911  1.0000
  Cs  Cs73      1.0  0.12748  0.62286  0.75071  1.0000
  Cs  Cs74      1.0  0.62727  0.62295  0.75066  1.0000
  Cs  Cs75      1.0  0.00994  0.26048  0.16696  1.0000
  Cs  Cs76      1.0  0.50984  0.26049  0.16699  1.0000
  Cs  Cs77      1.0  0.48557  0.96294  0.95001  1.0000
  Cs  Cs78      1.0  0.98547  0.96300  0.94999  1.0000
  Cs  Cs79      1.0  0.37739  0.87749  0.24961  1.0000
  Cs  Cs80      1.0  0.87717  0.87756  0.24959  1.0000
  Cs  Cs81      1.0  0.48458  0.04715  0.22953  1.0000
  Cs  Cs82      1.0  0.98455  0.04712  0.22944  1.0000
  Cs  Cs83      1.0  0.01610  0.54710  0.27078  1.0000
  Cs  Cs84      1.0  0.51611  0.54704  0.27080  1.0000
  Cs  Cs85      1.0  0.48112  0.24306  0.83339  1.0000
  Cs  Cs86      1.0  0.98113  0.24318  0.83326  1.0000
  Cs  Cs87      1.0  0.24083  0.74002  0.66703  1.0000
  Cs  Cs88      1.0  0.74077  0.73992  0.66688  1.0000
  Rb  Rb1       1.0  0.37504  0.88489  0.09042  1.0000
  Rb  Rb2       1.0  0.87482  0.88486  0.09035  1.0000
  Rb  Rb3       1.0  0.12367  0.00901  0.09297  1.0000
  Rb  Rb4       1.0  0.62375  0.00900  0.09305  1.0000
  Rb  Rb5       1.0  0.37640  0.68042  0.50781  1.0000
  Rb  Rb6       1.0  0.87667  0.68030  0.50775  1.0000
  Rb  Rb7       1.0  0.37716  0.88962  0.57541  1.0000
  Rb  Rb8       1.0  0.87715  0.88953  0.57537  1.0000
  Rb  Rb9       1.0  0.37400  0.32006  0.00778  1.0000
  Rb  Rb10      1.0  0.87413  0.32020  0.00771  1.0000
  Rb  Rb11      1.0  0.37351  0.11085  0.07541  1.0000
  Rb  Rb12      1.0  0.87339  0.11097  0.07531  1.0000
  Rb  Rb13      1.0  0.12419  0.19363  0.34826  1.0000
  Rb  Rb14      1.0  0.62427  0.19360  0.34822  1.0000
  Rb  Rb15      1.0  0.37740  0.67891  0.81477  1.0000
  Rb  Rb16      1.0  0.87743  0.67884  0.81474  1.0000
  Rb  Rb17      1.0  0.37492  0.27699  0.46700  1.0000
  Rb  Rb18      1.0  0.87506  0.27715  0.46696  1.0000
  Rb  Rb19      1.0  0.37613  0.69368  0.15201  1.0000
  Rb  Rb20      1.0  0.87616  0.69364  0.15203  1.0000
  Rb  Rb21      1.0  0.12501  0.22331  0.53320  1.0000
  Rb  Rb22      1.0  0.62492  0.22331  0.53331  1.0000
  Rb  Rb23      1.0  0.12481  0.61572  0.90999  1.0000
  Rb  Rb24      1.0  0.62489  0.61574  0.91000  1.0000
  Rb  Rb25      1.0  0.37313  0.32165  0.31484  1.0000
  Rb  Rb26      1.0  0.87316  0.32154  0.31470  1.0000
  Rb  Rb27      1.0  0.12405  0.18042  0.99254  1.0000
  Rb  Rb28      1.0  0.62407  0.18033  0.99259  1.0000
  Rb  Rb29      1.0  0.12727  0.61087  0.42490  1.0000
  Rb  Rb30      1.0  0.62729  0.61072  0.42500  1.0000
  Rb  Rb31      1.0  0.12552  0.38480  0.40987  1.0000
  Rb  Rb32      1.0  0.62540  0.38472  0.40998  1.0000
  Rb  Rb33      1.0  0.37537  0.72344  0.96704  1.0000
  Rb  Rb34      1.0  0.87534  0.72339  0.96703  1.0000
  Rb  Rb35      1.0  0.37686  0.50906  0.40734  1.0000
  Rb  Rb36      1.0  0.87699  0.50894  0.40733  1.0000
  Rb  Rb37      1.0  0.12679  0.99140  0.59304  1.0000
  Rb  Rb38      1.0  0.62693  0.99156  0.59296  1.0000
  Rb  Rb39      1.0  0.12305  0.17890  0.68546  1.0000
  Rb  Rb40      1.0  0.62327  0.17887  0.68559  1.0000
  Rb  Rb41      1.0  0.12655  0.82016  0.49251  1.0000
  Rb  Rb42      1.0  0.62654  0.82006  0.49257  1.0000
  Rb  Rb43      1.0  0.12638  0.80680  0.84826  1.0000
  Rb  Rb44      1.0  0.62627  0.80682  0.84830  1.0000
  Rb  Rb45      1.0  0.12723  0.82160  0.18554  1.0000
  Rb  Rb46      1.0  0.62724  0.82169  0.18560  1.0000
  Rb  Rb47      1.0  0.37543  0.11561  0.59038  1.0000
  Rb  Rb48      1.0  0.87560  0.11564  0.59037  1.0000
  Rb  Rb49      1.0  0.12341  0.38969  0.92486  1.0000
  Rb  Rb50      1.0  0.62346  0.38962  0.92493  1.0000
  Rb  Rb51      1.0  0.37419  0.30674  0.65207  1.0000
  Rb  Rb52      1.0  0.87418  0.30683  0.65206  1.0000
  Rb  Rb53      1.0  0.12553  0.77708  0.03334  1.0000
  Rb  Rb54      1.0  0.62537  0.77707  0.03335  1.0000
  Rb  Rb55      1.0  0.37374  0.49158  0.90734  1.0000
  Rb  Rb56      1.0  0.87354  0.49150  0.90722  1.0000
  O   O1        1.0  0.12484  0.49822  0.72255  1.0000
  O   O2        1.0  0.62458  0.49820  0.72256  1.0000
  O   O3        1.0  0.37418  0.00389  0.90030  1.0000
  O   O4        1.0  0.87424  0.00387  0.90037  1.0000
  O   O5        1.0  0.12845  0.65827  0.66478  1.0000
  O   O6        1.0  0.62834  0.65821  0.66474  1.0000
  O   O7        1.0  0.37620  0.99650  0.40033  1.0000
  O   O8        1.0  0.87643  0.99654  0.40032  1.0000
  O   O9        1.0  0.37232  0.15823  0.83557  1.0000
  O   O10       1.0  0.87223  0.15819  0.83554  1.0000
  O   O11       1.0  0.12233  0.34226  0.16470  1.0000
  O   O12       1.0  0.62228  0.34220  0.16471  1.0000
  O   O13       1.0  0.37836  0.84217  0.33558  1.0000
  O   O14       1.0  0.87821  0.84218  0.33555  1.0000
  O   O15       1.0  0.12598  0.50222  0.22253  1.0000
  O   O16       1.0  0.62587  0.50216  0.22254  1.0000
  O   O17       1.0  0.37467  0.00219  0.27772  1.0000
  O   O18       1.0  0.87471  0.00221  0.27776  1.0000
  O   O19       1.0  0.37578  0.99833  0.77770  1.0000
  O   O20       1.0  0.87578  0.99825  0.77773  1.0000
  O   O21       1.0  0.12645  0.50395  0.60001  1.0000
  O   O22       1.0  0.62632  0.50378  0.59999  1.0000
  O   O23       1.0  0.12416  0.49654  0.09993  1.0000
  O   O24       1.0  0.62421  0.49657  0.09994  1.0000
