data_image0
_chemical_formula_structural       Li32Ga32O64
_chemical_formula_sum              "Li32 Ga32 O64"
_cell_length_a       10.019
_cell_length_b       10.8237
_cell_length_c       12.7109
_cell_angle_alpha    89.9958
_cell_angle_beta     90.0064
_cell_angle_gamma    89.9699

_space_group_name_H-M_alt    "P 1"
_space_group_IT_number       1

loop_
  _space_group_symop_operation_xyz
  'x, y, z'

loop_
  _atom_site_type_symbol
  _atom_site_label
  _atom_site_symmetry_multiplicity
  _atom_site_fract_x
  _atom_site_fract_y
  _atom_site_fract_z
  _atom_site_occupancy
  Li  Li1       1.0  0.50054  0.29149  0.43828  1.0000
  Li  Li2       1.0  0.50051  0.29143  0.93821  1.0000
  Li  Li3       1.0  0.50060  0.79142  0.43817  1.0000
  Li  Li4       1.0  0.50059  0.79154  0.93813  1.0000
  Li  Li5       1.0  0.00058  0.29131  0.43824  1.0000
  Li  Li6       1.0  0.00072  0.29151  0.93826  1.0000
  Li  Li7       1.0  0.00054  0.79149  0.43831  1.0000
  Li  Li8       1.0  0.00067  0.79147  0.93825  1.0000
  Li  Li9       1.0  0.25058  0.45958  0.18820  1.0000
  Li  Li10      1.0  0.25051  0.45956  0.68825  1.0000
  Li  Li11      1.0  0.25066  0.95960  0.18821  1.0000
  Li  Li12      1.0  0.25050  0.95953  0.68818  1.0000
  Li  Li13      1.0  0.75062  0.45953  0.18818  1.0000
  Li  Li14      1.0  0.75053  0.45954  0.68825  1.0000
  Li  Li15      1.0  0.75033  0.95956  0.18830  1.0000
  Li  Li16      1.0  0.75055  0.95939  0.68828  1.0000
  Li  Li17      1.0  0.50048  0.04138  0.31247  1.0000
  Li  Li18      1.0  0.50069  0.04145  0.81241  1.0000
  Li  Li19      1.0  0.50051  0.54139  0.31241  1.0000
  Li  Li20      1.0  0.50064  0.54149  0.81243  1.0000
  Li  Li21      1.0  0.00048  0.04142  0.31247  1.0000
  Li  Li22      1.0  0.00056  0.04147  0.81253  1.0000
  Li  Li23      1.0  0.00070  0.54143  0.31247  1.0000
  Li  Li24      1.0  0.00057  0.54146  0.81253  1.0000
  Li  Li25      1.0  0.25057  0.20955  0.06261  1.0000
  Li  Li26      1.0  0.25061  0.20951  0.56261  1.0000
  Li  Li27      1.0  0.25058  0.70968  0.06246  1.0000
  Li  Li28      1.0  0.25044  0.70950  0.56245  1.0000
  Li  Li29      1.0  0.75062  0.20972  0.06249  1.0000
  Li  Li30      1.0  0.75051  0.20955  0.56252  1.0000
  Li  Li31      1.0  0.75055  0.70944  0.06251  1.0000
  Li  Li32      1.0  0.75052  0.70945  0.56247  1.0000
  Ga  Ga1       1.0  0.00257  0.29245  0.18738  1.0000
  Ga  Ga2       1.0  0.00254  0.29243  0.68737  1.0000
  Ga  Ga3       1.0  0.00257  0.79247  0.18735  1.0000
  Ga  Ga4       1.0  0.00248  0.79236  0.68737  1.0000
  Ga  Ga5       1.0  0.50255  0.29242  0.18736  1.0000
  Ga  Ga6       1.0  0.50258  0.29246  0.68738  1.0000
  Ga  Ga7       1.0  0.50251  0.79237  0.18722  1.0000
  Ga  Ga8       1.0  0.50253  0.79237  0.68723  1.0000
  Ga  Ga9       1.0  0.25253  0.20839  0.31358  1.0000
  Ga  Ga10      1.0  0.25251  0.20837  0.81351  1.0000
  Ga  Ga11      1.0  0.25254  0.70842  0.31349  1.0000
  Ga  Ga12      1.0  0.25262  0.70840  0.81346  1.0000
  Ga  Ga13      1.0  0.75248  0.20843  0.31352  1.0000
  Ga  Ga14      1.0  0.75259  0.20831  0.81350  1.0000
  Ga  Ga15      1.0  0.75257  0.70837  0.31344  1.0000
  Ga  Ga16      1.0  0.75246  0.70843  0.81357  1.0000
  Ga  Ga17      1.0  0.25248  0.45838  0.43735  1.0000
  Ga  Ga18      1.0  0.25263  0.45842  0.93729  1.0000
  Ga  Ga19      1.0  0.25250  0.95840  0.43733  1.0000
  Ga  Ga20      1.0  0.25258  0.95844  0.93728  1.0000
  Ga  Ga21      1.0  0.75256  0.45838  0.43727  1.0000
  Ga  Ga22      1.0  0.75258  0.45834  0.93733  1.0000
  Ga  Ga23      1.0  0.75250  0.95834  0.43734  1.0000
  Ga  Ga24      1.0  0.75267  0.95840  0.93740  1.0000
  Ga  Ga25      1.0  0.00259  0.04245  0.06352  1.0000
  Ga  Ga26      1.0  0.00248  0.04243  0.56346  1.0000
  Ga  Ga27      1.0  0.00265  0.54249  0.06343  1.0000
  Ga  Ga28      1.0  0.00245  0.54235  0.56350  1.0000
  Ga  Ga29      1.0  0.50264  0.04248  0.06338  1.0000
  Ga  Ga30      1.0  0.50256  0.04242  0.56344  1.0000
  Ga  Ga31      1.0  0.50252  0.54239  0.06337  1.0000
  Ga  Ga32      1.0  0.50256  0.54241  0.56344  1.0000
  O   O1        1.0  0.18818  0.03582  0.05720  1.0000
  O   O2        1.0  0.18804  0.03585  0.55716  1.0000
  O   O3        1.0  0.18819  0.53592  0.05712  1.0000
  O   O4        1.0  0.18802  0.53581  0.55722  1.0000
  O   O5        1.0  0.68821  0.03594  0.05719  1.0000
  O   O6        1.0  0.68813  0.03572  0.55727  1.0000
  O   O7        1.0  0.68805  0.53574  0.05717  1.0000
  O   O8        1.0  0.68807  0.53574  0.55715  1.0000
  O   O9        1.0  0.18810  0.28580  0.19366  1.0000
  O   O10       1.0  0.18810  0.28587  0.69360  1.0000
  O   O11       1.0  0.18816  0.78587  0.19356  1.0000
  O   O12       1.0  0.18807  0.78573  0.69349  1.0000
  O   O13       1.0  0.68808  0.28587  0.19361  1.0000
  O   O14       1.0  0.68813  0.28580  0.69361  1.0000
  O   O15       1.0  0.68808  0.78576  0.19354  1.0000
  O   O16       1.0  0.68804  0.78571  0.69357  1.0000
  O   O17       1.0  0.43807  0.46516  0.44350  1.0000
  O   O18       1.0  0.43815  0.46515  0.94341  1.0000
  O   O19       1.0  0.43802  0.96517  0.44348  1.0000
  O   O20       1.0  0.43812  0.96527  0.94342  1.0000
  O   O21       1.0  0.93811  0.46516  0.44350  1.0000
  O   O22       1.0  0.93809  0.46517  0.94356  1.0000
  O   O23       1.0  0.93798  0.96518  0.44355  1.0000
  O   O24       1.0  0.93816  0.96519  0.94356  1.0000
  O   O25       1.0  0.43803  0.21523  0.30727  1.0000
  O   O26       1.0  0.43816  0.21505  0.80724  1.0000
  O   O27       1.0  0.43805  0.71515  0.30716  1.0000
  O   O28       1.0  0.43810  0.71518  0.80715  1.0000
  O   O29       1.0  0.93801  0.21518  0.30727  1.0000
  O   O30       1.0  0.93818  0.21518  0.80728  1.0000
  O   O31       1.0  0.93811  0.71514  0.30725  1.0000
  O   O32       1.0  0.93803  0.71516  0.80735  1.0000
  O   O33       1.0  0.44757  0.20552  0.06883  1.0000
  O   O34       1.0  0.44757  0.20551  0.56881  1.0000
  O   O35       1.0  0.44759  0.70547  0.06865  1.0000
  O   O36       1.0  0.44753  0.70544  0.56874  1.0000
  O   O37       1.0  0.94756  0.20556  0.06880  1.0000
  O   O38       1.0  0.94752  0.20547  0.56889  1.0000
  O   O39       1.0  0.94760  0.70552  0.06881  1.0000
  O   O40       1.0  0.94748  0.70541  0.56877  1.0000
  O   O41       1.0  0.19748  0.29542  0.43205  1.0000
  O   O42       1.0  0.19759  0.29548  0.93203  1.0000
  O   O43       1.0  0.19749  0.79550  0.43194  1.0000
  O   O44       1.0  0.19764  0.79552  0.93191  1.0000
  O   O45       1.0  0.69746  0.29547  0.43199  1.0000
  O   O46       1.0  0.69748  0.29542  0.93192  1.0000
  O   O47       1.0  0.69751  0.79541  0.43193  1.0000
  O   O48       1.0  0.69752  0.79552  0.93200  1.0000
  O   O49       1.0  0.19753  0.04546  0.31882  1.0000
  O   O50       1.0  0.19745  0.04542  0.81878  1.0000
  O   O51       1.0  0.19754  0.54549  0.31880  1.0000
  O   O52       1.0  0.19750  0.54547  0.81876  1.0000
  O   O53       1.0  0.69745  0.04547  0.31887  1.0000
  O   O54       1.0  0.69772  0.04535  0.81886  1.0000
  O   O55       1.0  0.69757  0.54543  0.31875  1.0000
  O   O56       1.0  0.69756  0.54546  0.81879  1.0000
  O   O57       1.0  0.44748  0.45543  0.18184  1.0000
  O   O58       1.0  0.44758  0.45551  0.68194  1.0000
  O   O59       1.0  0.44758  0.95546  0.18188  1.0000
  O   O60       1.0  0.44754  0.95541  0.68192  1.0000
  O   O61       1.0  0.94761  0.45550  0.18191  1.0000
  O   O62       1.0  0.94749  0.45541  0.68196  1.0000
  O   O63       1.0  0.94735  0.95549  0.18201  1.0000
  O   O64       1.0  0.94750  0.95546  0.68198  1.0000
