data_image0
_chemical_formula_structural       In24Ge24O84
_chemical_formula_sum              "In24 Ge24 O84"
_cell_length_a       14.8677
_cell_length_b       10.9626
_cell_length_c       11.0861
_cell_angle_alpha    76.6952
_cell_angle_beta     97.3942
_cell_angle_gamma    101.249

_space_group_name_H-M_alt    "P 1"
_space_group_IT_number       1

loop_
  _space_group_symop_operation_xyz
  'x, y, z'

loop_
  _atom_site_type_symbol
  _atom_site_label
  _atom_site_symmetry_multiplicity
  _atom_site_fract_x
  _atom_site_fract_y
  _atom_site_fract_z
  _atom_site_occupancy
  In  In1       1.0  0.00047  0.15412  0.27000  1.0000
  In  In2       1.0  0.00043  0.15399  0.77007  1.0000
  In  In3       1.0  0.00041  0.65396  0.52018  1.0000
  In  In4       1.0  0.00043  0.65401  0.02004  1.0000
  In  In5       1.0  0.33372  0.15396  0.27013  1.0000
  In  In6       1.0  0.33369  0.15394  0.76998  1.0000
  In  In7       1.0  0.33371  0.65396  0.52000  1.0000
  In  In8       1.0  0.33387  0.65394  0.02006  1.0000
  In  In9       1.0  0.66704  0.15392  0.27008  1.0000
  In  In10      1.0  0.66707  0.15398  0.77015  1.0000
  In  In11      1.0  0.66712  0.65390  0.52012  1.0000
  In  In12      1.0  0.66709  0.65403  0.02013  1.0000
  In  In13      1.0  0.00037  0.34679  0.98078  1.0000
  In  In14      1.0  0.00039  0.34670  0.48095  1.0000
  In  In15      1.0  0.00042  0.84675  0.23085  1.0000
  In  In16      1.0  0.00045  0.84674  0.73096  1.0000
  In  In17      1.0  0.33375  0.34666  0.98076  1.0000
  In  In18      1.0  0.33381  0.34677  0.48082  1.0000
  In  In19      1.0  0.33371  0.84670  0.23085  1.0000
  In  In20      1.0  0.33373  0.84663  0.73088  1.0000
  In  In21      1.0  0.66708  0.34674  0.98098  1.0000
  In  In22      1.0  0.66703  0.34666  0.48078  1.0000
  In  In23      1.0  0.66719  0.84674  0.23089  1.0000
  In  In24      1.0  0.66707  0.84665  0.73093  1.0000
  Ge  Ge1       1.0  0.13610  0.11771  0.05917  1.0000
  Ge  Ge2       1.0  0.13613  0.11758  0.55901  1.0000
  Ge  Ge3       1.0  0.13603  0.61755  0.30921  1.0000
  Ge  Ge4       1.0  0.13616  0.61761  0.80921  1.0000
  Ge  Ge5       1.0  0.46939  0.11766  0.05926  1.0000
  Ge  Ge6       1.0  0.46947  0.11757  0.55927  1.0000
  Ge  Ge7       1.0  0.46950  0.61762  0.30923  1.0000
  Ge  Ge8       1.0  0.46944  0.61757  0.80908  1.0000
  Ge  Ge9       1.0  0.80281  0.11779  0.05915  1.0000
  Ge  Ge10      1.0  0.80277  0.11759  0.55921  1.0000
  Ge  Ge11      1.0  0.80285  0.61767  0.30923  1.0000
  Ge  Ge12      1.0  0.80278  0.61756  0.80922  1.0000
  Ge  Ge13      1.0  0.19814  0.38309  0.19159  1.0000
  Ge  Ge14      1.0  0.19805  0.38304  0.69160  1.0000
  Ge  Ge15      1.0  0.19803  0.88285  0.44159  1.0000
  Ge  Ge16      1.0  0.19810  0.88308  0.94170  1.0000
  Ge  Ge17      1.0  0.53135  0.38294  0.19174  1.0000
  Ge  Ge18      1.0  0.53144  0.38296  0.69163  1.0000
  Ge  Ge19      1.0  0.53142  0.88296  0.44176  1.0000
  Ge  Ge20      1.0  0.53140  0.88310  0.94178  1.0000
  Ge  Ge21      1.0  0.86480  0.38305  0.19175  1.0000
  Ge  Ge22      1.0  0.86466  0.38292  0.69165  1.0000
  Ge  Ge23      1.0  0.86486  0.88304  0.44173  1.0000
  Ge  Ge24      1.0  0.86477  0.88314  0.94177  1.0000
  O   O1        1.0  0.26336  0.46333  0.06610  1.0000
  O   O2        1.0  0.26328  0.46328  0.56613  1.0000
  O   O3        1.0  0.26324  0.96329  0.31613  1.0000
  O   O4        1.0  0.26322  0.96331  0.81610  1.0000
  O   O5        1.0  0.59663  0.46338  0.06635  1.0000
  O   O6        1.0  0.59661  0.46329  0.56610  1.0000
  O   O7        1.0  0.59669  0.96322  0.31634  1.0000
  O   O8        1.0  0.59675  0.96324  0.81641  1.0000
  O   O9        1.0  0.93008  0.46334  0.06633  1.0000
  O   O10       1.0  0.92986  0.46333  0.56618  1.0000
  O   O11       1.0  0.93007  0.96338  0.31625  1.0000
  O   O12       1.0  0.93008  0.96335  0.81633  1.0000
  O   O13       1.0  0.07085  0.20310  0.93619  1.0000
  O   O14       1.0  0.07098  0.20322  0.43611  1.0000
  O   O15       1.0  0.07073  0.70283  0.18626  1.0000
  O   O16       1.0  0.07088  0.70301  0.68629  1.0000
  O   O17       1.0  0.40404  0.20282  0.93627  1.0000
  O   O18       1.0  0.40422  0.20292  0.43624  1.0000
  O   O19       1.0  0.40423  0.70294  0.18624  1.0000
  O   O20       1.0  0.40407  0.70290  0.68622  1.0000
  O   O21       1.0  0.73771  0.20329  0.93613  1.0000
  O   O22       1.0  0.73751  0.20294  0.43619  1.0000
  O   O23       1.0  0.73755  0.70304  0.18628  1.0000
  O   O24       1.0  0.73754  0.70301  0.68626  1.0000
  O   O25       1.0  0.07086  0.03743  0.18463  1.0000
  O   O26       1.0  0.07076  0.03744  0.68442  1.0000
  O   O27       1.0  0.07090  0.53730  0.43483  1.0000
  O   O28       1.0  0.07082  0.53747  0.93463  1.0000
  O   O29       1.0  0.40432  0.03733  0.18492  1.0000
  O   O30       1.0  0.40426  0.03724  0.68480  1.0000
  O   O31       1.0  0.40432  0.53748  0.43484  1.0000
  O   O32       1.0  0.40425  0.53734  0.93462  1.0000
  O   O33       1.0  0.73736  0.03749  0.18440  1.0000
  O   O34       1.0  0.73751  0.03729  0.68469  1.0000
  O   O35       1.0  0.73755  0.53729  0.43462  1.0000
  O   O36       1.0  0.73755  0.53737  0.93478  1.0000
  O   O37       1.0  0.26343  0.29786  0.31462  1.0000
  O   O38       1.0  0.26334  0.29766  0.81450  1.0000
  O   O39       1.0  0.26323  0.79755  0.56469  1.0000
  O   O40       1.0  0.26343  0.79776  0.06463  1.0000
  O   O41       1.0  0.59664  0.29765  0.31471  1.0000
  O   O42       1.0  0.59677  0.29788  0.81473  1.0000
  O   O43       1.0  0.59660  0.79749  0.56476  1.0000
  O   O44       1.0  0.59663  0.79774  0.06477  1.0000
  O   O45       1.0  0.92999  0.29771  0.31481  1.0000
  O   O46       1.0  0.92989  0.29764  0.81471  1.0000
  O   O47       1.0  0.93004  0.79774  0.56484  1.0000
  O   O48       1.0  0.93007  0.79782  0.06472  1.0000
  O   O49       1.0  0.16722  0.00048  0.00044  1.0000
  O   O50       1.0  0.16702  0.00025  0.50019  1.0000
  O   O51       1.0  0.16721  0.50050  0.25027  1.0000
  O   O52       1.0  0.16712  0.50031  0.75053  1.0000
  O   O53       1.0  0.50041  0.00053  0.00029  1.0000
  O   O54       1.0  0.50056  0.00022  0.50069  1.0000
  O   O55       1.0  0.50015  0.49992  0.25079  1.0000
  O   O56       1.0  0.50016  0.50017  0.75023  1.0000
  O   O57       1.0  0.83400  0.00051  0.00060  1.0000
  O   O58       1.0  0.83389  0.00045  0.50037  1.0000
  O   O59       1.0  0.83404  0.50067  0.25032  1.0000
  O   O60       1.0  0.83369  0.50024  0.75044  1.0000
  O   O61       1.0  0.09146  0.29552  0.14789  1.0000
  O   O62       1.0  0.09135  0.29555  0.64802  1.0000
  O   O63       1.0  0.09136  0.79525  0.39795  1.0000
  O   O64       1.0  0.09136  0.79559  0.89807  1.0000
  O   O65       1.0  0.42472  0.29528  0.14798  1.0000
  O   O66       1.0  0.42479  0.29525  0.64797  1.0000
  O   O67       1.0  0.42473  0.79549  0.39798  1.0000
  O   O68       1.0  0.42478  0.79541  0.89803  1.0000
  O   O69       1.0  0.75808  0.29552  0.14811  1.0000
  O   O70       1.0  0.75799  0.29537  0.64799  1.0000
  O   O71       1.0  0.75813  0.79549  0.39806  1.0000
  O   O72       1.0  0.75805  0.79562  0.89814  1.0000
  O   O73       1.0  0.24276  0.20529  0.10297  1.0000
  O   O74       1.0  0.24275  0.20518  0.60279  1.0000
  O   O75       1.0  0.24267  0.70531  0.35288  1.0000
  O   O76       1.0  0.24277  0.70528  0.85300  1.0000
  O   O77       1.0  0.57606  0.20529  0.10290  1.0000
  O   O78       1.0  0.57613  0.20522  0.60297  1.0000
  O   O79       1.0  0.57619  0.70513  0.35288  1.0000
  O   O80       1.0  0.57614  0.70502  0.85286  1.0000
  O   O81       1.0  0.90944  0.20537  0.10298  1.0000
  O   O82       1.0  0.90938  0.20526  0.60301  1.0000
  O   O83       1.0  0.90946  0.70539  0.35301  1.0000
  O   O84       1.0  0.90943  0.70520  0.85290  1.0000
