data_image0
_chemical_formula_structural       Na32Si24Sn4O72
_chemical_formula_sum              "Na32 Si24 Sn4 O72"
_cell_length_a       10.5778
_cell_length_b       10.1909
_cell_length_c       14.6887
_cell_angle_alpha    90.0036
_cell_angle_beta     87.0786
_cell_angle_gamma    90.0057

_space_group_name_H-M_alt    "P 1"
_space_group_IT_number       1

loop_
  _space_group_symop_operation_xyz
  'x, y, z'

loop_
  _atom_site_type_symbol
  _atom_site_label
  _atom_site_symmetry_multiplicity
  _atom_site_fract_x
  _atom_site_fract_y
  _atom_site_fract_z
  _atom_site_occupancy
  Na  Na1       1.0  0.25039  0.25289  0.25021  1.0000
  Na  Na2       1.0  0.25033  0.24789  0.75023  1.0000
  Na  Na3       1.0  0.75078  0.75272  0.25027  1.0000
  Na  Na4       1.0  0.75072  0.75269  0.75021  1.0000
  Na  Na5       1.0  0.75758  0.00120  0.37878  1.0000
  Na  Na6       1.0  0.75744  0.00081  0.87865  1.0000
  Na  Na7       1.0  0.25749  0.50096  0.37872  1.0000
  Na  Na8       1.0  0.25741  0.50016  0.87851  1.0000
  Na  Na9       1.0  0.24337  0.00033  0.12141  1.0000
  Na  Na10      1.0  0.24334  0.00039  0.62129  1.0000
  Na  Na11      1.0  0.74333  0.50056  0.12135  1.0000
  Na  Na12      1.0  0.74334  0.50067  0.62136  1.0000
  Na  Na13      1.0  0.50310  0.99999  0.99998  1.0000
  Na  Na14      1.0  0.50308  0.99999  0.49999  1.0000
  Na  Na15      1.0  0.00317  0.49993  1.00000  1.0000
  Na  Na16      1.0  0.00309  0.50009  0.49999  1.0000
  Na  Na17      1.0  0.00056  0.00205  0.25053  1.0000
  Na  Na18      1.0  0.00040  0.00206  0.75053  1.0000
  Na  Na19      1.0  0.50047  0.50216  0.25051  1.0000
  Na  Na20      1.0  0.50043  0.50209  0.75060  1.0000
  Na  Na21      1.0  0.25037  0.25003  0.00023  1.0000
  Na  Na22      1.0  0.25190  0.25218  0.50017  1.0000
  Na  Na23      1.0  0.75197  0.75198  0.00011  1.0000
  Na  Na24      1.0  0.75173  0.75203  0.50014  1.0000
  Na  Na25      1.0  0.25038  0.74990  0.00024  1.0000
  Na  Na26      1.0  0.24967  0.75183  0.50048  1.0000
  Na  Na27      1.0  0.74987  0.25104  0.00037  1.0000
  Na  Na28      1.0  0.74962  0.25198  0.50047  1.0000
  Na  Na29      1.0  0.25014  0.75287  0.25000  1.0000
  Na  Na30      1.0  0.25015  0.75278  0.74994  1.0000
  Na  Na31      1.0  0.74996  0.25292  0.24999  1.0000
  Na  Na32      1.0  0.75012  0.25313  0.74988  1.0000
  Si  Si1       1.0  0.50707  0.22847  0.13969  1.0000
  Si  Si2       1.0  0.50714  0.22853  0.63974  1.0000
  Si  Si3       1.0  0.00722  0.72853  0.13970  1.0000
  Si  Si4       1.0  0.00719  0.72845  0.63967  1.0000
  Si  Si5       1.0  0.50715  0.77192  0.13960  1.0000
  Si  Si6       1.0  0.50714  0.77199  0.63965  1.0000
  Si  Si7       1.0  0.00707  0.27196  0.13964  1.0000
  Si  Si8       1.0  0.00714  0.27199  0.63965  1.0000
  Si  Si9       1.0  0.49351  0.22854  0.36113  1.0000
  Si  Si10      1.0  0.49353  0.22848  0.86116  1.0000
  Si  Si11      1.0  0.99356  0.72851  0.36116  1.0000
  Si  Si12      1.0  0.99359  0.72846  0.86110  1.0000
  Si  Si13      1.0  0.49359  0.77215  0.36120  1.0000
  Si  Si14      1.0  0.49366  0.77200  0.86127  1.0000
  Si  Si15      1.0  0.99355  0.27213  0.36125  1.0000
  Si  Si16      1.0  0.99340  0.27201  0.86124  1.0000
  Si  Si17      1.0  0.72191  0.00027  0.13294  1.0000
  Si  Si18      1.0  0.72193  0.00032  0.63288  1.0000
  Si  Si19      1.0  0.22195  0.50022  0.13286  1.0000
  Si  Si20      1.0  0.22202  0.50013  0.63303  1.0000
  Si  Si21      1.0  0.27882  0.00035  0.36789  1.0000
  Si  Si22      1.0  0.27887  0.00005  0.86799  1.0000
  Si  Si23      1.0  0.77879  0.50034  0.36785  1.0000
  Si  Si24      1.0  0.77880  0.50034  0.86791  1.0000
  Sn  Sn1       1.0  0.00027  0.00013  0.00043  1.0000
  Sn  Sn2       1.0  0.00034  0.00021  0.50041  1.0000
  Sn  Sn3       1.0  0.50033  0.50010  0.00042  1.0000
  Sn  Sn4       1.0  0.50029  0.50026  0.50043  1.0000
  O   O1        1.0  0.18849  0.00008  0.46043  1.0000
  O   O2        1.0  0.18847  0.00034  0.96045  1.0000
  O   O3        1.0  0.68851  0.50014  0.46042  1.0000
  O   O4        1.0  0.68853  0.50018  0.96045  1.0000
  O   O5        1.0  0.62897  0.12877  0.12180  1.0000
  O   O6        1.0  0.62906  0.12887  0.62169  1.0000
  O   O7        1.0  0.12908  0.62882  0.12170  1.0000
  O   O8        1.0  0.12909  0.62877  0.62185  1.0000
  O   O9        1.0  0.21138  0.99980  0.27418  1.0000
  O   O10       1.0  0.21143  0.99974  0.77423  1.0000
  O   O11       1.0  0.71133  0.49983  0.27416  1.0000
  O   O12       1.0  0.71139  0.49998  0.77418  1.0000
  O   O13       1.0  0.37157  0.87155  0.37926  1.0000
  O   O14       1.0  0.37159  0.87136  0.87928  1.0000
  O   O15       1.0  0.87148  0.37147  0.37914  1.0000
  O   O16       1.0  0.87135  0.37132  0.87910  1.0000
  O   O17       1.0  0.62095  0.83220  0.39504  1.0000
  O   O18       1.0  0.62095  0.83207  0.89515  1.0000
  O   O19       1.0  0.12079  0.33224  0.39518  1.0000
  O   O20       1.0  0.12065  0.33192  0.89528  1.0000
  O   O21       1.0  0.62921  0.87139  0.12162  1.0000
  O   O22       1.0  0.62910  0.87154  0.62155  1.0000
  O   O23       1.0  0.12907  0.37148  0.12153  1.0000
  O   O24       1.0  0.12914  0.37141  0.62164  1.0000
  O   O25       1.0  0.50054  0.25783  0.25042  1.0000
  O   O26       1.0  0.50072  0.25771  0.75044  1.0000
  O   O27       1.0  0.00079  0.75781  0.25045  1.0000
  O   O28       1.0  0.00038  0.75787  0.75040  1.0000
  O   O29       1.0  0.55435  0.63389  0.09481  1.0000
  O   O30       1.0  0.55437  0.63405  0.59476  1.0000
  O   O31       1.0  0.05440  0.13405  0.09470  1.0000
  O   O32       1.0  0.05439  0.13399  0.59480  1.0000
  O   O33       1.0  0.81194  0.00014  0.04025  1.0000
  O   O34       1.0  0.81202  0.00009  0.54023  1.0000
  O   O35       1.0  0.31197  0.50031  0.04019  1.0000
  O   O36       1.0  0.31197  0.49995  0.54026  1.0000
  O   O37       1.0  0.44577  0.36614  0.40636  1.0000
  O   O38       1.0  0.44588  0.36608  0.90636  1.0000
  O   O39       1.0  0.94576  0.86612  0.40634  1.0000
  O   O40       1.0  0.94580  0.86602  0.90639  1.0000
  O   O41       1.0  0.62080  0.16874  0.39518  1.0000
  O   O42       1.0  0.62068  0.16842  0.89523  1.0000
  O   O43       1.0  0.12076  0.66866  0.39526  1.0000
  O   O44       1.0  0.12097  0.66865  0.89495  1.0000
  O   O45       1.0  0.44636  0.63415  0.40609  1.0000
  O   O46       1.0  0.44631  0.63404  0.90612  1.0000
  O   O47       1.0  0.94634  0.13411  0.40609  1.0000
  O   O48       1.0  0.94614  0.13400  0.90611  1.0000
  O   O49       1.0  0.37156  0.12903  0.37906  1.0000
  O   O50       1.0  0.37147  0.12894  0.87887  1.0000
  O   O51       1.0  0.87158  0.62901  0.37891  1.0000
  O   O52       1.0  0.87176  0.62884  0.87908  1.0000
  O   O53       1.0  0.78966  0.99986  0.22649  1.0000
  O   O54       1.0  0.78957  0.99979  0.72645  1.0000
  O   O55       1.0  0.28955  0.49972  0.22646  1.0000
  O   O56       1.0  0.28981  0.49995  0.72651  1.0000
  O   O57       1.0  0.37976  0.83165  0.10574  1.0000
  O   O58       1.0  0.37967  0.83175  0.60595  1.0000
  O   O59       1.0  0.87956  0.33162  0.10595  1.0000
  O   O60       1.0  0.87967  0.33174  0.60598  1.0000
  O   O61       1.0  0.55489  0.36600  0.09441  1.0000
  O   O62       1.0  0.55491  0.36602  0.59438  1.0000
  O   O63       1.0  0.05492  0.86610  0.09443  1.0000
  O   O64       1.0  0.05501  0.86599  0.59438  1.0000
  O   O65       1.0  0.50034  0.74328  0.25042  1.0000
  O   O66       1.0  0.50055  0.74327  0.75046  1.0000
  O   O67       1.0  0.00067  0.24322  0.25045  1.0000
  O   O68       1.0  0.00056  0.24301  0.75045  1.0000
  O   O69       1.0  0.37957  0.16888  0.10591  1.0000
  O   O70       1.0  0.37961  0.16885  0.60608  1.0000
  O   O71       1.0  0.87970  0.66898  0.10599  1.0000
  O   O72       1.0  0.87973  0.66897  0.60582  1.0000
