data_image0
_chemical_formula_structural       Cs16Na16Ti16O48
_chemical_formula_sum              "Cs16 Na16 Ti16 O48"
_cell_length_a       12.0105
_cell_length_b       11.1814
_cell_length_c       11.2701
_cell_angle_alpha    90.0026
_cell_angle_beta     89.9718
_cell_angle_gamma    89.9911

_space_group_name_H-M_alt    "P 1"
_space_group_IT_number       1

loop_
  _space_group_symop_operation_xyz
  'x, y, z'

loop_
  _atom_site_type_symbol
  _atom_site_label
  _atom_site_symmetry_multiplicity
  _atom_site_fract_x
  _atom_site_fract_y
  _atom_site_fract_z
  _atom_site_occupancy
  Cs  Cs1       1.0  0.25024  0.76908  0.37550  1.0000
  Cs  Cs2       1.0  0.25032  0.76925  0.87548  1.0000
  Cs  Cs3       1.0  0.50023  0.26918  0.37548  1.0000
  Cs  Cs4       1.0  0.50031  0.26918  0.87555  1.0000
  Cs  Cs5       1.0  0.75027  0.76917  0.37550  1.0000
  Cs  Cs6       1.0  0.75035  0.76916  0.87546  1.0000
  Cs  Cs7       1.0  0.00026  0.26916  0.37551  1.0000
  Cs  Cs8       1.0  0.00030  0.26915  0.87548  1.0000
  Cs  Cs9       1.0  0.25030  0.23167  0.12547  1.0000
  Cs  Cs10      1.0  0.25026  0.23174  0.62544  1.0000
  Cs  Cs11      1.0  0.50028  0.73172  0.12548  1.0000
  Cs  Cs12      1.0  0.50031  0.73167  0.62549  1.0000
  Cs  Cs13      1.0  0.75030  0.23166  0.12547  1.0000
  Cs  Cs14      1.0  0.75031  0.23173  0.62551  1.0000
  Cs  Cs15      1.0  0.00028  0.73167  0.12547  1.0000
  Cs  Cs16      1.0  0.00030  0.73173  0.62550  1.0000
  Na  Na1       1.0  0.25065  0.92653  0.12569  1.0000
  Na  Na2       1.0  0.25082  0.92673  0.62565  1.0000
  Na  Na3       1.0  0.50094  0.42669  0.12558  1.0000
  Na  Na4       1.0  0.50101  0.42664  0.62555  1.0000
  Na  Na5       1.0  0.75071  0.92657  0.12557  1.0000
  Na  Na6       1.0  0.75072  0.92656  0.62557  1.0000
  Na  Na7       1.0  0.00086  0.42663  0.12554  1.0000
  Na  Na8       1.0  0.00088  0.42666  0.62555  1.0000
  Na  Na9       1.0  0.25070  0.07379  0.37554  1.0000
  Na  Na10      1.0  0.25053  0.07397  0.87558  1.0000
  Na  Na11      1.0  0.50054  0.57395  0.37552  1.0000
  Na  Na12      1.0  0.50067  0.57389  0.87548  1.0000
  Na  Na13      1.0  0.75052  0.07389  0.37559  1.0000
  Na  Na14      1.0  0.75065  0.07393  0.87558  1.0000
  Na  Na15      1.0  0.00054  0.57388  0.37557  1.0000
  Na  Na16      1.0  0.00055  0.57398  0.87553  1.0000
  Ti  Ti1       1.0  0.25039  0.54887  0.12542  1.0000
  Ti  Ti2       1.0  0.25045  0.54895  0.62546  1.0000
  Ti  Ti3       1.0  0.50033  0.04882  0.12542  1.0000
  Ti  Ti4       1.0  0.50044  0.04897  0.62547  1.0000
  Ti  Ti5       1.0  0.75041  0.54890  0.12544  1.0000
  Ti  Ti6       1.0  0.75045  0.54892  0.62539  1.0000
  Ti  Ti7       1.0  0.00037  0.04886  0.12545  1.0000
  Ti  Ti8       1.0  0.00038  0.04893  0.62544  1.0000
  Ti  Ti9       1.0  0.25035  0.45211  0.37543  1.0000
  Ti  Ti10      1.0  0.25035  0.45200  0.87545  1.0000
  Ti  Ti11      1.0  0.50035  0.95201  0.37545  1.0000
  Ti  Ti12      1.0  0.50041  0.95206  0.87544  1.0000
  Ti  Ti13      1.0  0.75032  0.45206  0.37543  1.0000
  Ti  Ti14      1.0  0.75038  0.45204  0.87540  1.0000
  Ti  Ti15      1.0  0.00040  0.95203  0.37543  1.0000
  Ti  Ti16      1.0  0.00036  0.95204  0.87547  1.0000
  O   O1        1.0  0.25030  0.70658  0.12541  1.0000
  O   O2        1.0  0.25036  0.70667  0.62555  1.0000
  O   O3        1.0  0.50030  0.20653  0.12555  1.0000
  O   O4        1.0  0.50035  0.20668  0.62551  1.0000
  O   O5        1.0  0.75031  0.70659  0.12538  1.0000
  O   O6        1.0  0.75029  0.70662  0.62548  1.0000
  O   O7        1.0  0.00031  0.20656  0.12544  1.0000
  O   O8        1.0  0.00027  0.20666  0.62548  1.0000
  O   O9        1.0  0.10640  0.00038  0.00049  1.0000
  O   O10       1.0  0.10639  0.00045  0.50046  1.0000
  O   O11       1.0  0.35640  0.50036  0.00047  1.0000
  O   O12       1.0  0.35638  0.50048  0.50049  1.0000
  O   O13       1.0  0.60644  0.00047  0.00046  1.0000
  O   O14       1.0  0.60640  0.00045  0.50044  1.0000
  O   O15       1.0  0.85639  0.50039  0.00048  1.0000
  O   O16       1.0  0.85643  0.50041  0.50040  1.0000
  O   O17       1.0  0.39429  0.00036  0.25051  1.0000
  O   O18       1.0  0.39430  0.00050  0.75053  1.0000
  O   O19       1.0  0.64428  0.50040  0.25047  1.0000
  O   O20       1.0  0.64433  0.50037  0.75038  1.0000
  O   O21       1.0  0.89432  0.00034  0.25046  1.0000
  O   O22       1.0  0.89432  0.00038  0.75047  1.0000
  O   O23       1.0  0.14429  0.50043  0.25047  1.0000
  O   O24       1.0  0.14432  0.50040  0.75051  1.0000
  O   O25       1.0  0.10643  0.00046  0.25043  1.0000
  O   O26       1.0  0.10638  0.00062  0.75050  1.0000
  O   O27       1.0  0.35639  0.50051  0.25045  1.0000
  O   O28       1.0  0.35641  0.50046  0.75045  1.0000
  O   O29       1.0  0.60635  0.00039  0.25044  1.0000
  O   O30       1.0  0.60643  0.00051  0.75047  1.0000
  O   O31       1.0  0.85640  0.50046  0.25040  1.0000
  O   O32       1.0  0.85641  0.50052  0.75039  1.0000
  O   O33       1.0  0.39428  0.00036  0.00056  1.0000
  O   O34       1.0  0.39436  0.00063  0.50057  1.0000
  O   O35       1.0  0.64435  0.50054  0.00046  1.0000
  O   O36       1.0  0.64431  0.50066  0.50041  1.0000
  O   O37       1.0  0.89427  0.00051  0.00052  1.0000
  O   O38       1.0  0.89431  0.00048  0.50053  1.0000
  O   O39       1.0  0.14431  0.50046  0.00053  1.0000
  O   O40       1.0  0.14432  0.50065  0.50052  1.0000
  O   O41       1.0  0.25025  0.29439  0.37555  1.0000
  O   O42       1.0  0.25029  0.29432  0.87543  1.0000
  O   O43       1.0  0.50027  0.79431  0.37559  1.0000
  O   O44       1.0  0.50039  0.79438  0.87553  1.0000
  O   O45       1.0  0.75015  0.29437  0.37546  1.0000
  O   O46       1.0  0.75030  0.29434  0.87550  1.0000
  O   O47       1.0  0.00041  0.79434  0.37549  1.0000
  O   O48       1.0  0.00031  0.79437  0.87552  1.0000
