data_image0
_chemical_formula_structural       Ba24Na8Bi8O48
_chemical_formula_sum              "Ba24 Na8 Bi8 O48"
_cell_length_a       10.1233
_cell_length_b       10.4883
_cell_length_c       14.5795
_cell_angle_alpha    89.998
_cell_angle_beta     92.8999
_cell_angle_gamma    90.0018

_space_group_name_H-M_alt    "P 1"
_space_group_IT_number       1

loop_
  _space_group_symop_operation_xyz
  'x, y, z'

loop_
  _atom_site_type_symbol
  _atom_site_label
  _atom_site_symmetry_multiplicity
  _atom_site_fract_x
  _atom_site_fract_y
  _atom_site_fract_z
  _atom_site_occupancy
  Ba  Ba1       1.0  0.57476  0.32475  0.30107  1.0000
  Ba  Ba2       1.0  0.57476  0.32478  0.80101  1.0000
  Ba  Ba3       1.0  0.07469  0.82468  0.30108  1.0000
  Ba  Ba4       1.0  0.07468  0.82480  0.80105  1.0000
  Ba  Ba5       1.0  0.42622  0.67625  0.19952  1.0000
  Ba  Ba6       1.0  0.42611  0.67621  0.69950  1.0000
  Ba  Ba7       1.0  0.92631  0.17620  0.19949  1.0000
  Ba  Ba8       1.0  0.92618  0.17634  0.69957  1.0000
  Ba  Ba9       1.0  0.75058  0.85194  0.12533  1.0000
  Ba  Ba10      1.0  0.75032  0.85201  0.62528  1.0000
  Ba  Ba11      1.0  0.25055  0.35197  0.12536  1.0000
  Ba  Ba12      1.0  0.25043  0.35201  0.62527  1.0000
  Ba  Ba13      1.0  0.57486  0.17631  0.05108  1.0000
  Ba  Ba14      1.0  0.57465  0.17627  0.55098  1.0000
  Ba  Ba15      1.0  0.07485  0.67620  0.05102  1.0000
  Ba  Ba16      1.0  0.07455  0.67616  0.55107  1.0000
  Ba  Ba17      1.0  0.25045  0.14897  0.37525  1.0000
  Ba  Ba18      1.0  0.25046  0.14900  0.87528  1.0000
  Ba  Ba19      1.0  0.75033  0.64902  0.37530  1.0000
  Ba  Ba20      1.0  0.75042  0.64899  0.87522  1.0000
  Ba  Ba21      1.0  0.42618  0.82475  0.44961  1.0000
  Ba  Ba22      1.0  0.42639  0.82485  0.94958  1.0000
  Ba  Ba23      1.0  0.92622  0.32474  0.44953  1.0000
  Ba  Ba24      1.0  0.92632  0.32480  0.94952  1.0000
  Na  Na1       1.0  0.75156  0.00075  0.37532  1.0000
  Na  Na2       1.0  0.75085  0.00087  0.87530  1.0000
  Na  Na3       1.0  0.25100  0.50116  0.37533  1.0000
  Na  Na4       1.0  0.25135  0.50049  0.87523  1.0000
  Na  Na5       1.0  0.25107  0.00035  0.12514  1.0000
  Na  Na6       1.0  0.25075  0.00053  0.62514  1.0000
  Na  Na7       1.0  0.75101  0.50045  0.12510  1.0000
  Na  Na8       1.0  0.75077  0.50056  0.62510  1.0000
  Bi  Bi1       1.0  0.00054  0.00051  0.00032  1.0000
  Bi  Bi2       1.0  0.00045  0.00047  0.50040  1.0000
  Bi  Bi3       1.0  0.50060  0.50049  0.00033  1.0000
  Bi  Bi4       1.0  0.50045  0.50046  0.50030  1.0000
  Bi  Bi5       1.0  0.50061  0.00049  0.25042  1.0000
  Bi  Bi6       1.0  0.50044  0.00056  0.75033  1.0000
  Bi  Bi7       1.0  0.00043  0.50046  0.25037  1.0000
  Bi  Bi8       1.0  0.00049  0.50050  0.75028  1.0000
  O   O1        1.0  0.82014  0.09835  0.02582  1.0000
  O   O2        1.0  0.82012  0.09844  0.52585  1.0000
  O   O3        1.0  0.32022  0.59846  0.02580  1.0000
  O   O4        1.0  0.32001  0.59833  0.52578  1.0000
  O   O5        1.0  0.38683  0.33594  0.45896  1.0000
  O   O6        1.0  0.38693  0.33595  0.95909  1.0000
  O   O7        1.0  0.88670  0.83588  0.45914  1.0000
  O   O8        1.0  0.88692  0.83595  0.95907  1.0000
  O   O9        1.0  0.51632  0.43365  0.13932  1.0000
  O   O10       1.0  0.51613  0.43378  0.63938  1.0000
  O   O11       1.0  0.01640  0.93359  0.13934  1.0000
  O   O12       1.0  0.01605  0.93393  0.63944  1.0000
  O   O13       1.0  0.48474  0.56726  0.36117  1.0000
  O   O14       1.0  0.48476  0.56723  0.86123  1.0000
  O   O15       1.0  0.98469  0.06710  0.36127  1.0000
  O   O16       1.0  0.98473  0.06732  0.86123  1.0000
  O   O17       1.0  0.51625  0.06717  0.38945  1.0000
  O   O18       1.0  0.51628  0.06730  0.88947  1.0000
  O   O19       1.0  0.01617  0.56729  0.38942  1.0000
  O   O20       1.0  0.01621  0.56737  0.88931  1.0000
  O   O21       1.0  0.68090  0.09839  0.22486  1.0000
  O   O22       1.0  0.68078  0.09840  0.72481  1.0000
  O   O23       1.0  0.18088  0.59822  0.22479  1.0000
  O   O24       1.0  0.18082  0.59837  0.72474  1.0000
  O   O25       1.0  0.18067  0.90239  0.47493  1.0000
  O   O26       1.0  0.18088  0.90268  0.97471  1.0000
  O   O27       1.0  0.68076  0.40253  0.47481  1.0000
  O   O28       1.0  0.68097  0.40267  0.97470  1.0000
  O   O29       1.0  0.61413  0.66505  0.04155  1.0000
  O   O30       1.0  0.61401  0.66512  0.54143  1.0000
  O   O31       1.0  0.11412  0.16511  0.04161  1.0000
  O   O32       1.0  0.11414  0.16504  0.54148  1.0000
  O   O33       1.0  0.38699  0.16505  0.20904  1.0000
  O   O34       1.0  0.38674  0.16516  0.70910  1.0000
  O   O35       1.0  0.88684  0.66513  0.20910  1.0000
  O   O36       1.0  0.88686  0.66507  0.70893  1.0000
  O   O37       1.0  0.48473  0.93367  0.11131  1.0000
  O   O38       1.0  0.48469  0.93379  0.61122  1.0000
  O   O39       1.0  0.98460  0.43369  0.11124  1.0000
  O   O40       1.0  0.98463  0.43367  0.61121  1.0000
  O   O41       1.0  0.32013  0.90273  0.27595  1.0000
  O   O42       1.0  0.32005  0.90268  0.77581  1.0000
  O   O43       1.0  0.82003  0.40273  0.27586  1.0000
  O   O44       1.0  0.82007  0.40274  0.77582  1.0000
  O   O45       1.0  0.61420  0.83590  0.29142  1.0000
  O   O46       1.0  0.61396  0.83588  0.79148  1.0000
  O   O47       1.0  0.11389  0.33572  0.29151  1.0000
  O   O48       1.0  0.11410  0.33590  0.79152  1.0000
