data_image0
_chemical_formula_structural       Rb12Ge24O54
_chemical_formula_sum              "Rb12 Ge24 O54"
_cell_length_a       12.1393
_cell_length_b       12.1393
_cell_length_c       9.9246
_cell_angle_alpha    90
_cell_angle_beta     90
_cell_angle_gamma    120

_space_group_name_H-M_alt    "P 1"
_space_group_IT_number       1

loop_
  _space_group_symop_operation_xyz
  'x, y, z'

loop_
  _atom_site_type_symbol
  _atom_site_label
  _atom_site_symmetry_multiplicity
  _atom_site_fract_x
  _atom_site_fract_y
  _atom_site_fract_z
  _atom_site_occupancy
  Rb  Rb1       1.0  0.99845  0.66307  0.56940  1.0000
  Rb  Rb2       1.0  0.66345  0.66535  0.43130  1.0000
  Rb  Rb3       1.0  0.33559  0.33792  0.93128  1.0000
  Rb  Rb4       1.0  0.00302  0.33770  0.43123  1.0000
  Rb  Rb5       1.0  0.33796  0.00284  0.06949  1.0000
  Rb  Rb6       1.0  0.99835  0.33557  0.06963  1.0000
  Rb  Rb7       1.0  0.66561  0.00275  0.56963  1.0000
  Rb  Rb8       1.0  0.66539  0.66304  0.06940  1.0000
  Rb  Rb9       1.0  0.66336  0.99816  0.93140  1.0000
  Rb  Rb10      1.0  0.00307  0.66560  0.93129  1.0000
  Rb  Rb11      1.0  0.33572  0.99833  0.43152  1.0000
  Rb  Rb12      1.0  0.33772  0.33543  0.56959  1.0000
  Ge  Ge1       1.0  0.00063  0.17772  0.75046  1.0000
  Ge  Ge2       1.0  0.33410  0.48504  0.22175  1.0000
  Ge  Ge3       1.0  0.84946  0.33387  0.77926  1.0000
  Ge  Ge4       1.0  0.33408  0.84941  0.72183  1.0000
  Ge  Ge5       1.0  0.51618  0.66716  0.72177  1.0000
  Ge  Ge6       1.0  0.15181  0.48512  0.72174  1.0000
  Ge  Ge7       1.0  0.17809  0.17771  0.25047  1.0000
  Ge  Ge8       1.0  0.15202  0.66712  0.22185  1.0000
  Ge  Ge9       1.0  0.66725  0.33377  0.03008  1.0000
  Ge  Ge10      1.0  0.66726  0.51582  0.77920  1.0000
  Ge  Ge11      1.0  0.48536  0.33389  0.27925  1.0000
  Ge  Ge12      1.0  0.00088  0.82321  0.25034  1.0000
  Ge  Ge13      1.0  0.33403  0.66725  0.97086  1.0000
  Ge  Ge14      1.0  0.82347  0.00057  0.25047  1.0000
  Ge  Ge15      1.0  0.48521  0.15186  0.77915  1.0000
  Ge  Ge16      1.0  0.66727  0.15169  0.27923  1.0000
  Ge  Ge17      1.0  0.00079  0.00049  0.50043  1.0000
  Ge  Ge18      1.0  0.33403  0.66716  0.47095  1.0000
  Ge  Ge19      1.0  0.82352  0.82307  0.75042  1.0000
  Ge  Ge20      1.0  0.17795  0.00049  0.75032  1.0000
  Ge  Ge21      1.0  0.00072  0.00038  0.00045  1.0000
  Ge  Ge22      1.0  0.51608  0.84932  0.22194  1.0000
  Ge  Ge23      1.0  0.84959  0.51584  0.27923  1.0000
  Ge  Ge24      1.0  0.66731  0.33377  0.53011  1.0000
  O   O1        1.0  0.67365  0.88236  0.18108  1.0000
  O   O2        1.0  0.42265  0.60969  0.57828  1.0000
  O   O3        1.0  0.00079  0.52976  0.25044  1.0000
  O   O4        1.0  0.60988  0.18774  0.42280  1.0000
  O   O5        1.0  0.07708  0.14822  0.38788  1.0000
  O   O6        1.0  0.27234  0.51907  0.36268  1.0000
  O   O7        1.0  0.47133  0.00069  0.75014  1.0000
  O   O8        1.0  0.81332  0.39111  0.92285  1.0000
  O   O9        1.0  0.48211  0.72895  0.86267  1.0000
  O   O10       1.0  0.47139  0.47115  0.25045  1.0000
  O   O11       1.0  0.72890  0.24724  0.13811  1.0000
  O   O12       1.0  0.60985  0.42245  0.92281  1.0000
  O   O13       1.0  0.18782  0.57836  0.57801  1.0000
  O   O14       1.0  0.32777  0.20939  0.32009  1.0000
  O   O15       1.0  0.52998  0.52983  0.75072  1.0000
  O   O16       1.0  0.79174  0.11863  0.32003  1.0000
  O   O17       1.0  0.39134  0.81318  0.57829  1.0000
  O   O18       1.0  0.14838  0.07668  0.11303  1.0000
  O   O19       1.0  0.32762  0.11872  0.81984  1.0000
  O   O20       1.0  0.92924  0.07668  0.61305  1.0000
  O   O21       1.0  0.11864  0.32750  0.68090  1.0000
  O   O22       1.0  0.57854  0.18775  0.92272  1.0000
  O   O23       1.0  0.75368  0.48180  0.13837  1.0000
  O   O24       1.0  0.48214  0.75352  0.36285  1.0000
  O   O25       1.0  0.57871  0.39130  0.42280  1.0000
  O   O26       1.0  0.24773  0.72896  0.36279  1.0000
  O   O27       1.0  0.27234  0.75384  0.86291  1.0000
  O   O28       1.0  0.42285  0.81327  0.07825  1.0000
  O   O29       1.0  0.92932  0.85254  0.11282  1.0000
  O   O30       1.0  0.79184  0.67335  0.82004  1.0000
  O   O31       1.0  0.07701  0.92901  0.88778  1.0000
  O   O32       1.0  0.92449  0.85273  0.61299  1.0000
  O   O33       1.0  0.39131  0.57840  0.07810  1.0000
  O   O34       1.0  0.81342  0.42244  0.42283  1.0000
  O   O35       1.0  0.51916  0.24755  0.63815  1.0000
  O   O36       1.0  0.20958  0.32743  0.18094  1.0000
  O   O37       1.0  0.88275  0.67344  0.31994  1.0000
  O   O38       1.0  0.51907  0.27202  0.13817  1.0000
  O   O39       1.0  0.52992  0.00048  0.25061  1.0000
  O   O40       1.0  0.11893  0.79151  0.18083  1.0000
  O   O41       1.0  0.92443  0.07179  0.11302  1.0000
  O   O42       1.0  0.20946  0.88226  0.68086  1.0000
  O   O43       1.0  0.07204  0.14808  0.88784  1.0000
  O   O44       1.0  0.85309  0.92909  0.38780  1.0000
  O   O45       1.0  0.14846  0.07189  0.61284  1.0000
  O   O46       1.0  0.85291  0.92403  0.88783  1.0000
  O   O47       1.0  0.07221  0.92419  0.38781  1.0000
  O   O48       1.0  0.00060  0.47118  0.75037  1.0000
  O   O49       1.0  0.72910  0.48191  0.63824  1.0000
  O   O50       1.0  0.24755  0.51916  0.86268  1.0000
  O   O51       1.0  0.88252  0.20939  0.82005  1.0000
  O   O52       1.0  0.75368  0.27209  0.63833  1.0000
  O   O53       1.0  0.67376  0.79146  0.68091  1.0000
  O   O54       1.0  0.18803  0.60985  0.07820  1.0000
