data_image0
_chemical_formula_structural       Na32In32O64
_chemical_formula_sum              "Na32 In32 O64"
_cell_length_a       12.6215
_cell_length_b       11.2419
_cell_length_c       11.4792
_cell_angle_alpha    99.4006
_cell_angle_beta     80.5593
_cell_angle_gamma    94.2581

_space_group_name_H-M_alt    "P 1"
_space_group_IT_number       1

loop_
  _space_group_symop_operation_xyz
  'x, y, z'

loop_
  _atom_site_type_symbol
  _atom_site_label
  _atom_site_symmetry_multiplicity
  _atom_site_fract_x
  _atom_site_fract_y
  _atom_site_fract_z
  _atom_site_occupancy
  Na  Na1       1.0  0.18779  0.62537  0.65674  1.0000
  Na  Na2       1.0  0.18764  0.62551  0.15677  1.0000
  Na  Na3       1.0  0.31295  0.87529  0.09414  1.0000
  Na  Na4       1.0  0.31294  0.87539  0.59418  1.0000
  Na  Na5       1.0  0.18777  0.12537  0.65664  1.0000
  Na  Na6       1.0  0.18773  0.12528  0.15655  1.0000
  Na  Na7       1.0  0.31277  0.37539  0.09418  1.0000
  Na  Na8       1.0  0.31276  0.37532  0.59410  1.0000
  Na  Na9       1.0  0.43775  0.62538  0.03172  1.0000
  Na  Na10      1.0  0.43789  0.62528  0.53166  1.0000
  Na  Na11      1.0  0.56288  0.87534  0.96913  1.0000
  Na  Na12      1.0  0.56276  0.87538  0.46916  1.0000
  Na  Na13      1.0  0.43765  0.12540  0.03167  1.0000
  Na  Na14      1.0  0.43774  0.12545  0.53171  1.0000
  Na  Na15      1.0  0.56294  0.37535  0.96914  1.0000
  Na  Na16      1.0  0.56294  0.37521  0.46906  1.0000
  Na  Na17      1.0  0.68777  0.62536  0.90668  1.0000
  Na  Na18      1.0  0.68767  0.62547  0.40670  1.0000
  Na  Na19      1.0  0.81294  0.87518  0.84401  1.0000
  Na  Na20      1.0  0.81276  0.87542  0.34420  1.0000
  Na  Na21      1.0  0.68792  0.12533  0.90663  1.0000
  Na  Na22      1.0  0.68781  0.12536  0.40669  1.0000
  Na  Na23      1.0  0.81288  0.37537  0.84420  1.0000
  Na  Na24      1.0  0.81279  0.37541  0.34422  1.0000
  Na  Na25      1.0  0.93774  0.62540  0.78168  1.0000
  Na  Na26      1.0  0.93787  0.62544  0.28172  1.0000
  Na  Na27      1.0  0.06298  0.87520  0.71908  1.0000
  Na  Na28      1.0  0.06266  0.87547  0.21920  1.0000
  Na  Na29      1.0  0.93791  0.12522  0.78159  1.0000
  Na  Na30      1.0  0.93777  0.12525  0.28159  1.0000
  Na  Na31      1.0  0.06289  0.37533  0.71916  1.0000
  Na  Na32      1.0  0.06268  0.37541  0.21922  1.0000
  In  In1       1.0  0.00042  0.50048  0.00054  1.0000
  In  In2       1.0  0.00028  0.50050  0.50047  1.0000
  In  In3       1.0  0.12551  0.75063  0.43815  1.0000
  In  In4       1.0  0.12547  0.75053  0.93793  1.0000
  In  In5       1.0  0.00027  0.00050  0.00020  1.0000
  In  In6       1.0  0.00036  0.00054  0.50049  1.0000
  In  In7       1.0  0.12541  0.25053  0.43788  1.0000
  In  In8       1.0  0.12533  0.25046  0.93793  1.0000
  In  In9       1.0  0.25035  0.50057  0.37548  1.0000
  In  In10      1.0  0.25032  0.50051  0.87558  1.0000
  In  In11      1.0  0.37542  0.75056  0.31294  1.0000
  In  In12      1.0  0.37547  0.75055  0.81301  1.0000
  In  In13      1.0  0.25036  0.00054  0.37544  1.0000
  In  In14      1.0  0.25038  0.00056  0.87539  1.0000
  In  In15      1.0  0.37543  0.25052  0.31284  1.0000
  In  In16      1.0  0.37541  0.25060  0.81294  1.0000
  In  In17      1.0  0.50034  0.50058  0.25033  1.0000
  In  In18      1.0  0.50029  0.50057  0.75054  1.0000
  In  In19      1.0  0.62541  0.75057  0.18782  1.0000
  In  In20      1.0  0.62547  0.75050  0.68796  1.0000
  In  In21      1.0  0.50038  0.00058  0.25054  1.0000
  In  In22      1.0  0.50042  0.00048  0.75043  1.0000
  In  In23      1.0  0.62541  0.25054  0.18799  1.0000
  In  In24      1.0  0.62538  0.25054  0.68799  1.0000
  In  In25      1.0  0.75044  0.50063  0.12560  1.0000
  In  In26      1.0  0.75031  0.50047  0.62543  1.0000
  In  In27      1.0  0.87547  0.75048  0.06289  1.0000
  In  In28      1.0  0.87539  0.75045  0.56280  1.0000
  In  In29      1.0  0.75036  0.00043  0.12546  1.0000
  In  In30      1.0  0.75036  0.00055  0.62554  1.0000
  In  In31      1.0  0.87534  0.25057  0.06307  1.0000
  In  In32      1.0  0.87537  0.25047  0.56297  1.0000
  O   O1        1.0  0.27731  0.68513  0.96978  1.0000
  O   O2        1.0  0.27740  0.68514  0.46982  1.0000
  O   O3        1.0  0.40231  0.93524  0.40730  1.0000
  O   O4        1.0  0.40227  0.93516  0.90720  1.0000
  O   O5        1.0  0.27721  0.18516  0.96965  1.0000
  O   O6        1.0  0.27732  0.18511  0.46962  1.0000
  O   O7        1.0  0.40231  0.43511  0.40706  1.0000
  O   O8        1.0  0.40229  0.43513  0.90730  1.0000
  O   O9        1.0  0.52729  0.68514  0.34458  1.0000
  O   O10       1.0  0.52738  0.68518  0.84478  1.0000
  O   O11       1.0  0.65230  0.93510  0.28218  1.0000
  O   O12       1.0  0.65230  0.93504  0.78222  1.0000
  O   O13       1.0  0.52724  0.18518  0.34477  1.0000
  O   O14       1.0  0.52734  0.18514  0.84464  1.0000
  O   O15       1.0  0.65225  0.43516  0.28222  1.0000
  O   O16       1.0  0.65223  0.43518  0.78226  1.0000
  O   O17       1.0  0.77729  0.68521  0.21974  1.0000
  O   O18       1.0  0.77741  0.68505  0.71967  1.0000
  O   O19       1.0  0.90227  0.93500  0.15708  1.0000
  O   O20       1.0  0.90225  0.93509  0.65723  1.0000
  O   O21       1.0  0.77723  0.18507  0.21984  1.0000
  O   O22       1.0  0.77731  0.18515  0.71983  1.0000
  O   O23       1.0  0.90237  0.43522  0.15740  1.0000
  O   O24       1.0  0.90227  0.43508  0.65719  1.0000
  O   O25       1.0  0.02738  0.68513  0.09471  1.0000
  O   O26       1.0  0.02726  0.68507  0.59473  1.0000
  O   O27       1.0  0.15221  0.93527  0.03213  1.0000
  O   O28       1.0  0.15234  0.93519  0.53232  1.0000
  O   O29       1.0  0.02716  0.18499  0.09463  1.0000
  O   O30       1.0  0.02732  0.18517  0.59473  1.0000
  O   O31       1.0  0.15229  0.43505  0.03234  1.0000
  O   O32       1.0  0.15224  0.43513  0.53216  1.0000
  O   O33       1.0  0.09839  0.56607  0.34386  1.0000
  O   O34       1.0  0.09842  0.56582  0.84384  1.0000
  O   O35       1.0  0.22359  0.81583  0.78120  1.0000
  O   O36       1.0  0.22356  0.81597  0.28132  1.0000
  O   O37       1.0  0.09845  0.06588  0.34377  1.0000
  O   O38       1.0  0.09840  0.06585  0.84352  1.0000
  O   O39       1.0  0.22346  0.31593  0.78122  1.0000
  O   O40       1.0  0.22344  0.31591  0.28120  1.0000
  O   O41       1.0  0.34840  0.56597  0.71893  1.0000
  O   O42       1.0  0.34835  0.56591  0.21875  1.0000
  O   O43       1.0  0.47360  0.81589  0.65618  1.0000
  O   O44       1.0  0.47348  0.81602  0.15623  1.0000
  O   O45       1.0  0.34852  0.06588  0.71871  1.0000
  O   O46       1.0  0.34847  0.06589  0.21863  1.0000
  O   O47       1.0  0.47339  0.31595  0.65620  1.0000
  O   O48       1.0  0.47352  0.31584  0.15611  1.0000
  O   O49       1.0  0.59840  0.56587  0.59380  1.0000
  O   O50       1.0  0.59843  0.56599  0.09375  1.0000
  O   O51       1.0  0.72349  0.81587  0.53121  1.0000
  O   O52       1.0  0.72355  0.81587  0.03110  1.0000
  O   O53       1.0  0.59851  0.06600  0.59370  1.0000
  O   O54       1.0  0.59844  0.06591  0.09380  1.0000
  O   O55       1.0  0.72347  0.31586  0.53127  1.0000
  O   O56       1.0  0.72352  0.31606  0.03134  1.0000
  O   O57       1.0  0.84833  0.56583  0.46866  1.0000
  O   O58       1.0  0.84850  0.56582  0.96884  1.0000
  O   O59       1.0  0.97362  0.81597  0.40621  1.0000
  O   O60       1.0  0.97353  0.81584  0.90611  1.0000
  O   O61       1.0  0.84842  0.06585  0.46880  1.0000
  O   O62       1.0  0.84833  0.06593  0.96873  1.0000
  O   O63       1.0  0.97341  0.31582  0.40620  1.0000
  O   O64       1.0  0.97343  0.31593  0.90634  1.0000
