data_image0
_chemical_formula_structural       Cs8Nb16Bi8O56
_chemical_formula_sum              "Cs8 Nb16 Bi8 O56"
_cell_length_a       10.8796
_cell_length_b       11.0499
_cell_length_c       11.536
_cell_angle_alpha    89.9957
_cell_angle_beta     89.9971
_cell_angle_gamma    89.9991

_space_group_name_H-M_alt    "P 1"
_space_group_IT_number       1

loop_
  _space_group_symop_operation_xyz
  'x, y, z'

loop_
  _atom_site_type_symbol
  _atom_site_label
  _atom_site_symmetry_multiplicity
  _atom_site_fract_x
  _atom_site_fract_y
  _atom_site_fract_z
  _atom_site_occupancy
  Cs  Cs1       1.0  0.12967  0.12360  0.50038  1.0000
  Cs  Cs2       1.0  0.12966  0.62361  0.50043  1.0000
  Cs  Cs3       1.0  0.62966  0.12363  0.50034  1.0000
  Cs  Cs4       1.0  0.62966  0.62358  0.50040  1.0000
  Cs  Cs5       1.0  0.37127  0.37360  0.50038  1.0000
  Cs  Cs6       1.0  0.37128  0.87358  0.50049  1.0000
  Cs  Cs7       1.0  0.87126  0.37358  0.50049  1.0000
  Cs  Cs8       1.0  0.87128  0.87361  0.50040  1.0000
  Nb  Nb1       1.0  0.12382  0.37760  0.79490  1.0000
  Nb  Nb2       1.0  0.12380  0.87764  0.79489  1.0000
  Nb  Nb3       1.0  0.62379  0.37763  0.79489  1.0000
  Nb  Nb4       1.0  0.62378  0.87762  0.79487  1.0000
  Nb  Nb5       1.0  0.37721  0.12757  0.20596  1.0000
  Nb  Nb6       1.0  0.37725  0.62758  0.20596  1.0000
  Nb  Nb7       1.0  0.87722  0.12755  0.20593  1.0000
  Nb  Nb8       1.0  0.87722  0.62755  0.20592  1.0000
  Nb  Nb9       1.0  0.37727  0.12762  0.79490  1.0000
  Nb  Nb10      1.0  0.37727  0.62760  0.79489  1.0000
  Nb  Nb11      1.0  0.87723  0.12761  0.79490  1.0000
  Nb  Nb12      1.0  0.87727  0.62762  0.79489  1.0000
  Nb  Nb13      1.0  0.12376  0.37755  0.20595  1.0000
  Nb  Nb14      1.0  0.12378  0.87756  0.20595  1.0000
  Nb  Nb15      1.0  0.62376  0.37757  0.20597  1.0000
  Nb  Nb16      1.0  0.62377  0.87758  0.20595  1.0000
  Bi  Bi1       1.0  0.13631  0.09590  0.00042  1.0000
  Bi  Bi2       1.0  0.13626  0.59592  0.00042  1.0000
  Bi  Bi3       1.0  0.63630  0.09589  0.00042  1.0000
  Bi  Bi4       1.0  0.63629  0.59588  0.00043  1.0000
  Bi  Bi5       1.0  0.36476  0.34592  0.00045  1.0000
  Bi  Bi6       1.0  0.36473  0.84592  0.00040  1.0000
  Bi  Bi7       1.0  0.86473  0.34592  0.00041  1.0000
  Bi  Bi8       1.0  0.86476  0.84589  0.00041  1.0000
  O   O1        1.0  0.22093  0.03897  0.81646  1.0000
  O   O2        1.0  0.22088  0.53896  0.81650  1.0000
  O   O3        1.0  0.72089  0.03897  0.81653  1.0000
  O   O4        1.0  0.72089  0.53898  0.81648  1.0000
  O   O5        1.0  0.48258  0.49183  0.84569  1.0000
  O   O6        1.0  0.48257  0.99182  0.84567  1.0000
  O   O7        1.0  0.98255  0.49180  0.84568  1.0000
  O   O8        1.0  0.98261  0.99183  0.84566  1.0000
  O   O9        1.0  0.39047  0.12464  0.36058  1.0000
  O   O10       1.0  0.39049  0.62463  0.36057  1.0000
  O   O11       1.0  0.89053  0.12466  0.36054  1.0000
  O   O12       1.0  0.89052  0.62465  0.36053  1.0000
  O   O13       1.0  0.48255  0.49177  0.15520  1.0000
  O   O14       1.0  0.48253  0.99178  0.15523  1.0000
  O   O15       1.0  0.98255  0.49179  0.15514  1.0000
  O   O16       1.0  0.98256  0.99177  0.15515  1.0000
  O   O17       1.0  0.01849  0.24177  0.15512  1.0000
  O   O18       1.0  0.01847  0.74180  0.15517  1.0000
  O   O19       1.0  0.51846  0.24177  0.15519  1.0000
  O   O20       1.0  0.51847  0.74178  0.15515  1.0000
  O   O21       1.0  0.33701  0.14739  0.00043  1.0000
  O   O22       1.0  0.33700  0.64742  0.00042  1.0000
  O   O23       1.0  0.83699  0.14739  0.00040  1.0000
  O   O24       1.0  0.83698  0.64740  0.00044  1.0000
  O   O25       1.0  0.11055  0.37470  0.64029  1.0000
  O   O26       1.0  0.11053  0.87474  0.64027  1.0000
  O   O27       1.0  0.61046  0.37472  0.64027  1.0000
  O   O28       1.0  0.61051  0.87473  0.64025  1.0000
  O   O29       1.0  0.28016  0.28897  0.81652  1.0000
  O   O30       1.0  0.28017  0.78897  0.81647  1.0000
  O   O31       1.0  0.78014  0.28899  0.81644  1.0000
  O   O32       1.0  0.78016  0.78898  0.81648  1.0000
  O   O33       1.0  0.16403  0.39743  0.00044  1.0000
  O   O34       1.0  0.16407  0.89740  0.00039  1.0000
  O   O35       1.0  0.66406  0.39740  0.00041  1.0000
  O   O36       1.0  0.66405  0.89738  0.00046  1.0000
  O   O37       1.0  0.28014  0.28893  0.18436  1.0000
  O   O38       1.0  0.28014  0.78894  0.18434  1.0000
  O   O39       1.0  0.78013  0.28894  0.18433  1.0000
  O   O40       1.0  0.78014  0.78894  0.18436  1.0000
  O   O41       1.0  0.39055  0.12472  0.64030  1.0000
  O   O42       1.0  0.39057  0.62472  0.64027  1.0000
  O   O43       1.0  0.89052  0.12473  0.64029  1.0000
  O   O44       1.0  0.89050  0.62472  0.64027  1.0000
  O   O45       1.0  0.11043  0.37467  0.36056  1.0000
  O   O46       1.0  0.11047  0.87463  0.36057  1.0000
  O   O47       1.0  0.61052  0.37470  0.36059  1.0000
  O   O48       1.0  0.61050  0.87464  0.36056  1.0000
  O   O49       1.0  0.22087  0.03893  0.18434  1.0000
  O   O50       1.0  0.22088  0.53892  0.18437  1.0000
  O   O51       1.0  0.72091  0.03893  0.18438  1.0000
  O   O52       1.0  0.72085  0.53892  0.18436  1.0000
  O   O53       1.0  0.01844  0.24184  0.84566  1.0000
  O   O54       1.0  0.01850  0.74182  0.84564  1.0000
  O   O55       1.0  0.51849  0.24182  0.84573  1.0000
  O   O56       1.0  0.51849  0.74183  0.84564  1.0000
