data_image0
_chemical_formula_structural       Cs16Na24In8O32
_chemical_formula_sum              "Cs16 Na24 In8 O32"
_cell_length_a       10.1443
_cell_length_b       12.6781
_cell_length_c       11.7408
_cell_angle_alpha    98.4795
_cell_angle_beta     90.0069
_cell_angle_gamma    89.989

_space_group_name_H-M_alt    "P 1"
_space_group_IT_number       1

loop_
  _space_group_symop_operation_xyz
  'x, y, z'

loop_
  _atom_site_type_symbol
  _atom_site_label
  _atom_site_symmetry_multiplicity
  _atom_site_fract_x
  _atom_site_fract_y
  _atom_site_fract_z
  _atom_site_occupancy
  Cs  Cs1       1.0  0.72815  0.44547  0.60780  1.0000
  Cs  Cs2       1.0  0.72807  0.94543  0.60788  1.0000
  Cs  Cs3       1.0  0.22822  0.80555  0.89273  1.0000
  Cs  Cs4       1.0  0.22828  0.30563  0.89268  1.0000
  Cs  Cs5       1.0  0.27332  0.55554  0.39276  1.0000
  Cs  Cs6       1.0  0.27339  0.05554  0.39279  1.0000
  Cs  Cs7       1.0  0.77357  0.19560  0.10802  1.0000
  Cs  Cs8       1.0  0.77321  0.69558  0.10791  1.0000
  Cs  Cs9       1.0  0.50363  0.32117  0.36337  1.0000
  Cs  Cs10      1.0  0.50367  0.82132  0.36337  1.0000
  Cs  Cs11      1.0  0.00348  0.42953  0.13703  1.0000
  Cs  Cs12      1.0  0.00347  0.92940  0.13694  1.0000
  Cs  Cs13      1.0  0.49778  0.67947  0.63726  1.0000
  Cs  Cs14      1.0  0.49793  0.17959  0.63748  1.0000
  Cs  Cs15      1.0  0.99739  0.57115  0.86339  1.0000
  Cs  Cs16      1.0  0.99766  0.07110  0.86338  1.0000
  Na  Na1       1.0  0.25519  0.29549  0.20227  1.0000
  Na  Na2       1.0  0.25523  0.79547  0.20230  1.0000
  Na  Na3       1.0  0.75502  0.45551  0.29940  1.0000
  Na  Na4       1.0  0.75516  0.95550  0.29927  1.0000
  Na  Na5       1.0  0.74624  0.70537  0.80001  1.0000
  Na  Na6       1.0  0.74645  0.20534  0.80020  1.0000
  Na  Na7       1.0  0.24545  0.54570  0.70234  1.0000
  Na  Na8       1.0  0.24549  0.04567  0.70221  1.0000
  Na  Na9       1.0  0.02810  0.19338  0.29564  1.0000
  Na  Na10      1.0  0.02799  0.69342  0.29554  1.0000
  Na  Na11      1.0  0.52840  0.55724  0.20452  1.0000
  Na  Na12      1.0  0.52865  0.05730  0.20448  1.0000
  Na  Na13      1.0  0.97285  0.80744  0.70475  1.0000
  Na  Na14      1.0  0.97288  0.30744  0.70478  1.0000
  Na  Na15      1.0  0.47258  0.44317  0.79550  1.0000
  Na  Na16      1.0  0.47243  0.94325  0.79552  1.0000
  Na  Na17      1.0  0.49030  0.35304  0.06967  1.0000
  Na  Na18      1.0  0.49025  0.85300  0.06963  1.0000
  Na  Na19      1.0  0.99042  0.39796  0.43083  1.0000
  Na  Na20      1.0  0.99037  0.89792  0.43086  1.0000
  Na  Na21      1.0  0.51029  0.64781  0.93098  1.0000
  Na  Na22      1.0  0.51035  0.14788  0.93152  1.0000
  Na  Na23      1.0  0.01060  0.60281  0.56954  1.0000
  Na  Na24      1.0  0.01063  0.10279  0.56958  1.0000
  In  In1       1.0  0.21694  0.33387  0.56452  1.0000
  In  In2       1.0  0.21689  0.83382  0.56449  1.0000
  In  In3       1.0  0.71687  0.91718  0.93607  1.0000
  In  In4       1.0  0.71690  0.41720  0.93612  1.0000
  In  In5       1.0  0.78407  0.66729  0.43628  1.0000
  In  In6       1.0  0.78414  0.16723  0.43634  1.0000
  In  In7       1.0  0.28389  0.08384  0.06469  1.0000
  In  In8       1.0  0.28393  0.58387  0.06460  1.0000
  O   O1        1.0  0.32055  0.45446  0.15001  1.0000
  O   O2        1.0  0.32061  0.95442  0.15008  1.0000
  O   O3        1.0  0.82068  0.29639  0.35056  1.0000
  O   O4        1.0  0.82064  0.79635  0.35042  1.0000
  O   O5        1.0  0.68008  0.54636  0.85049  1.0000
  O   O6        1.0  0.67996  0.04639  0.85055  1.0000
  O   O7        1.0  0.18028  0.70449  0.65004  1.0000
  O   O8        1.0  0.18031  0.20450  0.64998  1.0000
  O   O9        1.0  0.19024  0.30446  0.38679  1.0000
  O   O10       1.0  0.19013  0.80437  0.38678  1.0000
  O   O11       1.0  0.69064  0.44636  0.11392  1.0000
  O   O12       1.0  0.69070  0.94630  0.11391  1.0000
  O   O13       1.0  0.81044  0.69644  0.61414  1.0000
  O   O14       1.0  0.81044  0.19634  0.61421  1.0000
  O   O15       1.0  0.31076  0.55429  0.88687  1.0000
  O   O16       1.0  0.31065  0.05434  0.88692  1.0000
  O   O17       1.0  0.10654  0.16231  0.10981  1.0000
  O   O18       1.0  0.10659  0.66236  0.10969  1.0000
  O   O19       1.0  0.60687  0.58889  0.39059  1.0000
  O   O20       1.0  0.60695  0.08882  0.39058  1.0000
  O   O21       1.0  0.89430  0.83880  0.89071  1.0000
  O   O22       1.0  0.89435  0.33887  0.89080  1.0000
  O   O23       1.0  0.39419  0.41239  0.60970  1.0000
  O   O24       1.0  0.39414  0.91233  0.60962  1.0000
  O   O25       1.0  0.06506  0.44274  0.62273  1.0000
  O   O26       1.0  0.06507  0.94271  0.62271  1.0000
  O   O27       1.0  0.56509  0.80815  0.87814  1.0000
  O   O28       1.0  0.56519  0.30810  0.87825  1.0000
  O   O29       1.0  0.93570  0.55822  0.37807  1.0000
  O   O30       1.0  0.93580  0.05820  0.37812  1.0000
  O   O31       1.0  0.43567  0.19283  0.12284  1.0000
  O   O32       1.0  0.43575  0.69280  0.12269  1.0000
