data_image0
_chemical_formula_structural       Cs16Sn8Ge24O72
_chemical_formula_sum              "Cs16 Sn8 Ge24 O72"
_cell_length_a       14.6273
_cell_length_b       12.6724
_cell_length_c       10.5415
_cell_angle_alpha    90.0056
_cell_angle_beta     89.9949
_cell_angle_gamma    89.9932

_space_group_name_H-M_alt    "P 1"
_space_group_IT_number       1

loop_
  _space_group_symop_operation_xyz
  'x, y, z'

loop_
  _atom_site_type_symbol
  _atom_site_label
  _atom_site_symmetry_multiplicity
  _atom_site_fract_x
  _atom_site_fract_y
  _atom_site_fract_z
  _atom_site_occupancy
  Cs  Cs1       1.0  0.25022  0.16689  0.05993  1.0000
  Cs  Cs2       1.0  0.50035  0.66713  0.06013  1.0000
  Cs  Cs3       1.0  0.75034  0.16703  0.05991  1.0000
  Cs  Cs4       1.0  0.00049  0.66708  0.06013  1.0000
  Cs  Cs5       1.0  0.25049  0.83363  0.56004  1.0000
  Cs  Cs6       1.0  0.50046  0.33381  0.56006  1.0000
  Cs  Cs7       1.0  0.75038  0.83369  0.56005  1.0000
  Cs  Cs8       1.0  0.00033  0.33372  0.55975  1.0000
  Cs  Cs9       1.0  0.25036  0.83380  0.94116  1.0000
  Cs  Cs10      1.0  0.50027  0.33365  0.94096  1.0000
  Cs  Cs11      1.0  0.75021  0.83372  0.94117  1.0000
  Cs  Cs12      1.0  0.00026  0.33363  0.94106  1.0000
  Cs  Cs13      1.0  0.25031  0.16716  0.44099  1.0000
  Cs  Cs14      1.0  0.50042  0.66700  0.44123  1.0000
  Cs  Cs15      1.0  0.75016  0.16716  0.44093  1.0000
  Cs  Cs16      1.0  0.00031  0.66714  0.44118  1.0000
  Sn  Sn1       1.0  0.00026  0.00031  0.00048  1.0000
  Sn  Sn2       1.0  0.25035  0.50027  0.00055  1.0000
  Sn  Sn3       1.0  0.50032  0.00042  0.00056  1.0000
  Sn  Sn4       1.0  0.75038  0.50040  0.00056  1.0000
  Sn  Sn5       1.0  0.00039  0.00039  0.50050  1.0000
  Sn  Sn6       1.0  0.25040  0.50038  0.50050  1.0000
  Sn  Sn7       1.0  0.50033  0.00036  0.50048  1.0000
  Sn  Sn8       1.0  0.75040  0.50046  0.50061  1.0000
  Ge  Ge1       1.0  0.15229  0.93074  0.25046  1.0000
  Ge  Ge2       1.0  0.40237  0.43076  0.25051  1.0000
  Ge  Ge3       1.0  0.65233  0.93076  0.25044  1.0000
  Ge  Ge4       1.0  0.90232  0.43079  0.25058  1.0000
  Ge  Ge5       1.0  0.12844  0.11746  0.75048  1.0000
  Ge  Ge6       1.0  0.37845  0.61751  0.75061  1.0000
  Ge  Ge7       1.0  0.62842  0.11745  0.75040  1.0000
  Ge  Ge8       1.0  0.87850  0.61755  0.75060  1.0000
  Ge  Ge9       1.0  0.27404  0.31351  0.75041  1.0000
  Ge  Ge10      1.0  0.52396  0.81365  0.75050  1.0000
  Ge  Ge11      1.0  0.77405  0.31352  0.75047  1.0000
  Ge  Ge12      1.0  0.02413  0.81355  0.75042  1.0000
  Ge  Ge13      1.0  0.22659  0.68709  0.25050  1.0000
  Ge  Ge14      1.0  0.47662  0.18713  0.25053  1.0000
  Ge  Ge15      1.0  0.72666  0.68714  0.25052  1.0000
  Ge  Ge16      1.0  0.97653  0.18714  0.25055  1.0000
  Ge  Ge17      1.0  0.37218  0.88322  0.25050  1.0000
  Ge  Ge18      1.0  0.62227  0.38326  0.25042  1.0000
  Ge  Ge19      1.0  0.87223  0.88322  0.25046  1.0000
  Ge  Ge20      1.0  0.12223  0.38320  0.25045  1.0000
  Ge  Ge21      1.0  0.34834  0.06989  0.75054  1.0000
  Ge  Ge22      1.0  0.59836  0.57005  0.75066  1.0000
  Ge  Ge23      1.0  0.84831  0.06982  0.75044  1.0000
  Ge  Ge24      1.0  0.09841  0.56989  0.75053  1.0000
  O   O1        1.0  0.14293  0.79112  0.25046  1.0000
  O   O2        1.0  0.39296  0.29115  0.25061  1.0000
  O   O3        1.0  0.64297  0.79116  0.25044  1.0000
  O   O4        1.0  0.89283  0.29117  0.25053  1.0000
  O   O5        1.0  0.22848  0.03820  0.75049  1.0000
  O   O6        1.0  0.47853  0.53832  0.75044  1.0000
  O   O7        1.0  0.72845  0.03815  0.75059  1.0000
  O   O8        1.0  0.97855  0.53830  0.75045  1.0000
  O   O9        1.0  0.16459  0.25311  0.75048  1.0000
  O   O10       1.0  0.41453  0.75320  0.75054  1.0000
  O   O11       1.0  0.66460  0.25310  0.75060  1.0000
  O   O12       1.0  0.91469  0.75316  0.75028  1.0000
  O   O13       1.0  0.33599  0.74760  0.25047  1.0000
  O   O14       1.0  0.58606  0.24761  0.25071  1.0000
  O   O15       1.0  0.83609  0.74758  0.25063  1.0000
  O   O16       1.0  0.08598  0.24758  0.25062  1.0000
  O   O17       1.0  0.27213  0.96245  0.25019  1.0000
  O   O18       1.0  0.52222  0.46249  0.25037  1.0000
  O   O19       1.0  0.77216  0.96240  0.25058  1.0000
  O   O20       1.0  0.02218  0.46245  0.25045  1.0000
  O   O21       1.0  0.35778  0.20953  0.75040  1.0000
  O   O22       1.0  0.60767  0.70968  0.75069  1.0000
  O   O23       1.0  0.85770  0.20946  0.75045  1.0000
  O   O24       1.0  0.10781  0.70953  0.75052  1.0000
  O   O25       1.0  0.11570  0.98539  0.10931  1.0000
  O   O26       1.0  0.36587  0.48547  0.10934  1.0000
  O   O27       1.0  0.61587  0.98559  0.10928  1.0000
  O   O28       1.0  0.86579  0.48566  0.10950  1.0000
  O   O29       1.0  0.06914  0.10847  0.60929  1.0000
  O   O30       1.0  0.31916  0.60838  0.60943  1.0000
  O   O31       1.0  0.56935  0.10847  0.60901  1.0000
  O   O32       1.0  0.81920  0.60850  0.60941  1.0000
  O   O33       1.0  0.29695  0.37748  0.60934  1.0000
  O   O34       1.0  0.54691  0.87746  0.60932  1.0000
  O   O35       1.0  0.79690  0.37749  0.60936  1.0000
  O   O36       1.0  0.04704  0.87750  0.60932  1.0000
  O   O37       1.0  0.20375  0.62315  0.10941  1.0000
  O   O38       1.0  0.45374  0.12337  0.10929  1.0000
  O   O39       1.0  0.70373  0.62329  0.10938  1.0000
  O   O40       1.0  0.95371  0.12327  0.10937  1.0000
  O   O41       1.0  0.43157  0.89235  0.10939  1.0000
  O   O42       1.0  0.68161  0.39225  0.10928  1.0000
  O   O43       1.0  0.93133  0.89227  0.10913  1.0000
  O   O44       1.0  0.18151  0.39215  0.10925  1.0000
  O   O45       1.0  0.38488  0.01515  0.60937  1.0000
  O   O46       1.0  0.63491  0.51543  0.60940  1.0000
  O   O47       1.0  0.88485  0.01510  0.60925  1.0000
  O   O48       1.0  0.13493  0.51516  0.60934  1.0000
  O   O49       1.0  0.38480  0.01516  0.89172  1.0000
  O   O50       1.0  0.63487  0.51525  0.89177  1.0000
  O   O51       1.0  0.88479  0.01511  0.89163  1.0000
  O   O52       1.0  0.13486  0.51513  0.89171  1.0000
  O   O53       1.0  0.43137  0.89231  0.39177  1.0000
  O   O54       1.0  0.68158  0.39247  0.39160  1.0000
  O   O55       1.0  0.93168  0.89235  0.39152  1.0000
  O   O56       1.0  0.18160  0.39231  0.39158  1.0000
  O   O57       1.0  0.20373  0.62325  0.39169  1.0000
  O   O58       1.0  0.45367  0.12316  0.39159  1.0000
  O   O59       1.0  0.70380  0.62328  0.39168  1.0000
  O   O60       1.0  0.95365  0.12326  0.39171  1.0000
  O   O61       1.0  0.29687  0.37738  0.89159  1.0000
  O   O62       1.0  0.54685  0.87750  0.89169  1.0000
  O   O63       1.0  0.79697  0.37753  0.89154  1.0000
  O   O64       1.0  0.04694  0.87741  0.89162  1.0000
  O   O65       1.0  0.06913  0.10833  0.89166  1.0000
  O   O66       1.0  0.31924  0.60832  0.89182  1.0000
  O   O67       1.0  0.56902  0.10840  0.89150  1.0000
  O   O68       1.0  0.81924  0.60849  0.89183  1.0000
  O   O69       1.0  0.11585  0.98563  0.39159  1.0000
  O   O70       1.0  0.36593  0.48559  0.39171  1.0000
  O   O71       1.0  0.61580  0.98548  0.39162  1.0000
  O   O72       1.0  0.86593  0.48560  0.39180  1.0000
