data_image0
_chemical_formula_structural       Y24Ga40O96
_chemical_formula_sum              "Y24 Ga40 O96"
_cell_length_a       12.2976
_cell_length_b       12.2976
_cell_length_c       12.2976
_cell_angle_alpha    89.9999
_cell_angle_beta     90
_cell_angle_gamma    89.9995

_space_group_name_H-M_alt    "P 1"
_space_group_IT_number       1

loop_
  _space_group_symop_operation_xyz
  'x, y, z'

loop_
  _atom_site_type_symbol
  _atom_site_label
  _atom_site_symmetry_multiplicity
  _atom_site_fract_x
  _atom_site_fract_y
  _atom_site_fract_z
  _atom_site_occupancy
  Y   Y1        1.0  0.25035  0.37544  0.50041  1.0000
  Y   Y2        1.0  0.75038  0.87551  0.00046  1.0000
  Y   Y3        1.0  0.00035  0.25052  0.62536  1.0000
  Y   Y4        1.0  0.50056  0.75038  0.12536  1.0000
  Y   Y5        1.0  0.50038  0.25042  0.37541  1.0000
  Y   Y6        1.0  0.00042  0.75066  0.87546  1.0000
  Y   Y7        1.0  0.62540  0.00056  0.25034  1.0000
  Y   Y8        1.0  0.12533  0.50050  0.75049  1.0000
  Y   Y9        1.0  0.37538  0.50036  0.25038  1.0000
  Y   Y10       1.0  0.87534  0.00051  0.75043  1.0000
  Y   Y11       1.0  0.25048  0.62542  0.00038  1.0000
  Y   Y12       1.0  0.75045  0.12539  0.50040  1.0000
  Y   Y13       1.0  0.25050  0.12548  0.00044  1.0000
  Y   Y14       1.0  0.75038  0.62544  0.50039  1.0000
  Y   Y15       1.0  0.50040  0.25049  0.87531  1.0000
  Y   Y16       1.0  0.00056  0.75054  0.37540  1.0000
  Y   Y17       1.0  0.00045  0.25052  0.12538  1.0000
  Y   Y18       1.0  0.50045  0.75048  0.62535  1.0000
  Y   Y19       1.0  0.87535  0.50056  0.25042  1.0000
  Y   Y20       1.0  0.37539  0.00040  0.75049  1.0000
  Y   Y21       1.0  0.12548  0.00046  0.25043  1.0000
  Y   Y22       1.0  0.62540  0.50053  0.75044  1.0000
  Y   Y23       1.0  0.25050  0.87546  0.50046  1.0000
  Y   Y24       1.0  0.75046  0.37542  0.00038  1.0000
  Ga  Ga1       1.0  0.75022  0.12541  0.00016  1.0000
  Ga  Ga2       1.0  0.25031  0.62544  0.50024  1.0000
  Ga  Ga3       1.0  0.75024  0.37540  0.50026  1.0000
  Ga  Ga4       1.0  0.25030  0.87540  0.00028  1.0000
  Ga  Ga5       1.0  0.12536  0.50028  0.25025  1.0000
  Ga  Ga6       1.0  0.62532  0.00032  0.75030  1.0000
  Ga  Ga7       1.0  0.50026  0.75037  0.37532  1.0000
  Ga  Ga8       1.0  0.00022  0.25031  0.87538  1.0000
  Ga  Ga9       1.0  0.37532  0.50025  0.75027  1.0000
  Ga  Ga10      1.0  0.87542  0.00031  0.25033  1.0000
  Ga  Ga11      1.0  0.50035  0.25031  0.12532  1.0000
  Ga  Ga12      1.0  0.00025  0.75033  0.62538  1.0000
  Ga  Ga13      1.0  0.25024  0.37544  0.00022  1.0000
  Ga  Ga14      1.0  0.75031  0.87539  0.50028  1.0000
  Ga  Ga15      1.0  0.00027  0.75042  0.12540  1.0000
  Ga  Ga16      1.0  0.50023  0.25031  0.62529  1.0000
  Ga  Ga17      1.0  0.00033  0.25028  0.37537  1.0000
  Ga  Ga18      1.0  0.50034  0.75031  0.87533  1.0000
  Ga  Ga19      1.0  0.12536  0.00035  0.75032  1.0000
  Ga  Ga20      1.0  0.62538  0.50021  0.25027  1.0000
  Ga  Ga21      1.0  0.37542  0.00027  0.25028  1.0000
  Ga  Ga22      1.0  0.87537  0.50042  0.75028  1.0000
  Ga  Ga23      1.0  0.25031  0.12539  0.50027  1.0000
  Ga  Ga24      1.0  0.75023  0.62546  0.00035  1.0000
  Ga  Ga25      1.0  0.00042  0.50070  0.00040  1.0000
  Ga  Ga26      1.0  0.50056  0.00052  0.50040  1.0000
  Ga  Ga27      1.0  0.25050  0.75052  0.25034  1.0000
  Ga  Ga28      1.0  0.75027  0.25058  0.75034  1.0000
  Ga  Ga29      1.0  0.25066  0.25061  0.25055  1.0000
  Ga  Ga30      1.0  0.75061  0.75068  0.75060  1.0000
  Ga  Ga31      1.0  0.25043  0.25038  0.75050  1.0000
  Ga  Ga32      1.0  0.75043  0.75057  0.25060  1.0000
  Ga  Ga33      1.0  0.00066  0.00076  0.00066  1.0000
  Ga  Ga34      1.0  0.50057  0.50066  0.50057  1.0000
  Ga  Ga35      1.0  0.50042  0.00039  0.00048  1.0000
  Ga  Ga36      1.0  0.00050  0.50056  0.50043  1.0000
  Ga  Ga37      1.0  0.00040  0.00054  0.50056  1.0000
  Ga  Ga38      1.0  0.50041  0.50048  0.00048  1.0000
  Ga  Ga39      1.0  0.75060  0.25046  0.25041  1.0000
  Ga  Ga40      1.0  0.25048  0.75052  0.75039  1.0000
  O   O1        1.0  0.35040  0.47311  0.05577  1.0000
  O   O2        1.0  0.85045  0.97302  0.55594  1.0000
  O   O3        1.0  0.05581  0.35051  0.47302  1.0000
  O   O4        1.0  0.55597  0.85045  0.97301  1.0000
  O   O5        1.0  0.52778  0.44484  0.35051  1.0000
  O   O6        1.0  0.02772  0.94504  0.85056  1.0000
  O   O7        1.0  0.15019  0.47320  0.94484  1.0000
  O   O8        1.0  0.65039  0.97317  0.44476  1.0000
  O   O9        1.0  0.80586  0.27780  0.60042  1.0000
  O   O10       1.0  0.30590  0.77771  0.10036  1.0000
  O   O11       1.0  0.05595  0.65046  0.02773  1.0000
  O   O12       1.0  0.55597  0.15026  0.52772  1.0000
  O   O13       1.0  0.19483  0.22306  0.60041  1.0000
  O   O14       1.0  0.69486  0.72316  0.10058  1.0000
  O   O15       1.0  0.47310  0.05586  0.35041  1.0000
  O   O16       1.0  0.97297  0.55609  0.85044  1.0000
  O   O17       1.0  0.30602  0.22309  0.40031  1.0000
  O   O18       1.0  0.80594  0.72324  0.90048  1.0000
  O   O19       1.0  0.60048  0.19500  0.22311  1.0000
  O   O20       1.0  0.10045  0.69503  0.72310  1.0000
  O   O21       1.0  0.27773  0.60048  0.80586  1.0000
  O   O22       1.0  0.77781  0.10051  0.30587  1.0000
  O   O23       1.0  0.77764  0.90041  0.19482  1.0000
  O   O24       1.0  0.27760  0.40028  0.69478  1.0000
  O   O25       1.0  0.90017  0.19491  0.77768  1.0000
  O   O26       1.0  0.40032  0.69487  0.27759  1.0000
  O   O27       1.0  0.22309  0.60045  0.19484  1.0000
  O   O28       1.0  0.72296  0.10050  0.69481  1.0000
  O   O29       1.0  0.40040  0.30609  0.22300  1.0000
  O   O30       1.0  0.90031  0.80603  0.72313  1.0000
  O   O31       1.0  0.22309  0.40032  0.30598  1.0000
  O   O32       1.0  0.72308  0.90041  0.80600  1.0000
  O   O33       1.0  0.60045  0.80601  0.27779  1.0000
  O   O34       1.0  0.10044  0.30577  0.77775  1.0000
  O   O35       1.0  0.35053  0.52780  0.44488  1.0000
  O   O36       1.0  0.85049  0.02779  0.94489  1.0000
  O   O37       1.0  0.65020  0.02784  0.05596  1.0000
  O   O38       1.0  0.15028  0.52782  0.55595  1.0000
  O   O39       1.0  0.19495  0.27782  0.10045  1.0000
  O   O40       1.0  0.69489  0.77779  0.60049  1.0000
  O   O41       1.0  0.94482  0.15032  0.47312  1.0000
  O   O42       1.0  0.44498  0.65030  0.97310  1.0000
  O   O43       1.0  0.47308  0.94475  0.15024  1.0000
  O   O44       1.0  0.97319  0.44497  0.65035  1.0000
  O   O45       1.0  0.02770  0.05614  0.65036  1.0000
  O   O46       1.0  0.52767  0.55580  0.15031  1.0000
  O   O47       1.0  0.19479  0.77774  0.90027  1.0000
  O   O48       1.0  0.69478  0.27765  0.40031  1.0000
  O   O49       1.0  0.15030  0.02766  0.44481  1.0000
  O   O50       1.0  0.65028  0.52772  0.94488  1.0000
  O   O51       1.0  0.44483  0.15030  0.02763  1.0000
  O   O52       1.0  0.94483  0.65037  0.52758  1.0000
  O   O53       1.0  0.97317  0.05606  0.15046  1.0000
  O   O54       1.0  0.47307  0.55599  0.65036  1.0000
  O   O55       1.0  0.35053  0.02784  0.55590  1.0000
  O   O56       1.0  0.85043  0.52784  0.05588  1.0000
  O   O57       1.0  0.69470  0.22314  0.90014  1.0000
  O   O58       1.0  0.19491  0.72324  0.40025  1.0000
  O   O59       1.0  0.44492  0.85053  0.47305  1.0000
  O   O60       1.0  0.94490  0.35059  0.97305  1.0000
  O   O61       1.0  0.30602  0.27784  0.90024  1.0000
  O   O62       1.0  0.80601  0.77773  0.40032  1.0000
  O   O63       1.0  0.02762  0.44488  0.15024  1.0000
  O   O64       1.0  0.52766  0.94478  0.65031  1.0000
  O   O65       1.0  0.30590  0.72309  0.60044  1.0000
  O   O66       1.0  0.80582  0.22301  0.10035  1.0000
  O   O67       1.0  0.47309  0.44493  0.85046  1.0000
  O   O68       1.0  0.97310  0.94487  0.35052  1.0000
  O   O69       1.0  0.02779  0.55598  0.35042  1.0000
  O   O70       1.0  0.52767  0.05588  0.85044  1.0000
  O   O71       1.0  0.05597  0.15044  0.97316  1.0000
  O   O72       1.0  0.55593  0.65041  0.47304  1.0000
  O   O73       1.0  0.55594  0.35046  0.02767  1.0000
  O   O74       1.0  0.05595  0.85055  0.52789  1.0000
  O   O75       1.0  0.85043  0.47310  0.44487  1.0000
  O   O76       1.0  0.35046  0.97305  0.94487  1.0000
  O   O77       1.0  0.15043  0.97319  0.05600  1.0000
  O   O78       1.0  0.65033  0.47318  0.55592  1.0000
  O   O79       1.0  0.90029  0.69497  0.22315  1.0000
  O   O80       1.0  0.40028  0.19483  0.72307  1.0000
  O   O81       1.0  0.27788  0.10058  0.19485  1.0000
  O   O82       1.0  0.77779  0.60065  0.69485  1.0000
  O   O83       1.0  0.10061  0.19497  0.27775  1.0000
  O   O84       1.0  0.60058  0.69500  0.77769  1.0000
  O   O85       1.0  0.27776  0.90033  0.30592  1.0000
  O   O86       1.0  0.77770  0.40042  0.80593  1.0000
  O   O87       1.0  0.60036  0.30605  0.72291  1.0000
  O   O88       1.0  0.10055  0.80597  0.22300  1.0000
  O   O89       1.0  0.72301  0.60046  0.30584  1.0000
  O   O90       1.0  0.22305  0.10046  0.80599  1.0000
  O   O91       1.0  0.22316  0.90039  0.69487  1.0000
  O   O92       1.0  0.72319  0.40027  0.19482  1.0000
  O   O93       1.0  0.90035  0.30590  0.27771  1.0000
  O   O94       1.0  0.40028  0.80588  0.77772  1.0000
  O   O95       1.0  0.44484  0.35059  0.52770  1.0000
  O   O96       1.0  0.94495  0.85076  0.02786  1.0000
