data_image0
_chemical_formula_structural       Nb16Sn16O56
_chemical_formula_sum              "Nb16 Sn16 O56"
_cell_length_a       10.8511
_cell_length_b       10.951
_cell_length_c       10.6567
_cell_angle_alpha    90.344
_cell_angle_beta     90.0087
_cell_angle_gamma    91.916

_space_group_name_H-M_alt    "P 1"
_space_group_IT_number       1

loop_
  _space_group_symop_operation_xyz
  'x, y, z'

loop_
  _atom_site_type_symbol
  _atom_site_label
  _atom_site_symmetry_multiplicity
  _atom_site_fract_x
  _atom_site_fract_y
  _atom_site_fract_z
  _atom_site_occupancy
  Nb  Nb1       1.0  0.62488  0.62592  0.62316  1.0000
  Nb  Nb2       1.0  0.12491  0.12565  0.62357  1.0000
  Nb  Nb3       1.0  0.12510  0.62604  0.12328  1.0000
  Nb  Nb4       1.0  0.62499  0.12617  0.12296  1.0000
  Nb  Nb5       1.0  0.62660  0.37118  0.37430  1.0000
  Nb  Nb6       1.0  0.12923  0.87048  0.37458  1.0000
  Nb  Nb7       1.0  0.12821  0.37064  0.87464  1.0000
  Nb  Nb8       1.0  0.62838  0.87050  0.87471  1.0000
  Nb  Nb9       1.0  0.37612  0.37406  0.62527  1.0000
  Nb  Nb10      1.0  0.87523  0.87499  0.62369  1.0000
  Nb  Nb11      1.0  0.87439  0.37643  0.12412  1.0000
  Nb  Nb12      1.0  0.37743  0.87296  0.12503  1.0000
  Nb  Nb13      1.0  0.37776  0.62399  0.37536  1.0000
  Nb  Nb14      1.0  0.87806  0.12576  0.37520  1.0000
  Nb  Nb15      1.0  0.87849  0.62607  0.87494  1.0000
  Nb  Nb16      1.0  0.37853  0.12361  0.87498  1.0000
  Sn  Sn1       1.0  0.39142  0.35077  0.12700  1.0000
  Sn  Sn2       1.0  0.89332  0.85297  0.12850  1.0000
  Sn  Sn3       1.0  0.89252  0.35175  0.62902  1.0000
  Sn  Sn4       1.0  0.39218  0.85098  0.62842  1.0000
  Sn  Sn5       1.0  0.11200  0.12790  0.13139  1.0000
  Sn  Sn6       1.0  0.62112  0.61629  0.13686  1.0000
  Sn  Sn7       1.0  0.61708  0.12085  0.63491  1.0000
  Sn  Sn8       1.0  0.11494  0.62491  0.63288  1.0000
  Sn  Sn9       1.0  0.14973  0.37669  0.40566  1.0000
  Sn  Sn10      1.0  0.64875  0.87726  0.40340  1.0000
  Sn  Sn11      1.0  0.64922  0.37657  0.90238  1.0000
  Sn  Sn12      1.0  0.15055  0.87731  0.90559  1.0000
  Sn  Sn13      1.0  0.37543  0.09589  0.34830  1.0000
  Sn  Sn14      1.0  0.87848  0.59717  0.35186  1.0000
  Sn  Sn15      1.0  0.87723  0.09492  0.85095  1.0000
  Sn  Sn16      1.0  0.37652  0.59607  0.85045  1.0000
  O   O1        1.0  0.73667  0.58572  0.75066  1.0000
  O   O2        1.0  0.23566  0.08462  0.75182  1.0000
  O   O3        1.0  0.23520  0.58479  0.25209  1.0000
  O   O4        1.0  0.73622  0.08578  0.25093  1.0000
  O   O5        1.0  0.73717  0.76437  0.55649  1.0000
  O   O6        1.0  0.23788  0.26359  0.55804  1.0000
  O   O7        1.0  0.23899  0.76307  0.05739  1.0000
  O   O8        1.0  0.73695  0.26489  0.05659  1.0000
  O   O9        1.0  0.49348  0.33475  0.49867  1.0000
  O   O10       1.0  0.99233  0.83568  0.49765  1.0000
  O   O11       1.0  0.99161  0.33698  0.99833  1.0000
  O   O12       1.0  0.49543  0.83346  0.99959  1.0000
  O   O13       1.0  0.91994  0.75958  0.74588  1.0000
  O   O14       1.0  0.42114  0.25769  0.74613  1.0000
  O   O15       1.0  0.42175  0.75669  0.24624  1.0000
  O   O16       1.0  0.91797  0.26204  0.24734  1.0000
  O   O17       1.0  0.48221  0.70212  0.50589  1.0000
  O   O18       1.0  0.98273  0.20328  0.50607  1.0000
  O   O19       1.0  0.98384  0.70392  0.00533  1.0000
  O   O20       1.0  0.48232  0.20206  0.00540  1.0000
  O   O21       1.0  0.54821  0.76531  0.74724  1.0000
  O   O22       1.0  0.04867  0.26563  0.74738  1.0000
  O   O23       1.0  0.04989  0.76661  0.24657  1.0000
  O   O24       1.0  0.54743  0.26544  0.24649  1.0000
  O   O25       1.0  0.48738  0.51408  0.68789  1.0000
  O   O26       1.0  0.98639  0.01488  0.68678  1.0000
  O   O27       1.0  0.98574  0.51622  0.18719  1.0000
  O   O28       1.0  0.48759  0.01409  0.18703  1.0000
  O   O29       1.0  0.30448  0.49811  0.48659  1.0000
  O   O30       1.0  0.80287  0.00075  0.48641  1.0000
  O   O31       1.0  0.80174  0.50196  0.98727  1.0000
  O   O32       1.0  0.30706  0.99651  0.98468  1.0000
  O   O33       1.0  0.28656  0.18765  0.21540  1.0000
  O   O34       1.0  0.79335  0.69869  0.22535  1.0000
  O   O35       1.0  0.79022  0.19378  0.72327  1.0000
  O   O36       1.0  0.28845  0.69028  0.71905  1.0000
  O   O37       1.0  0.66980  0.51652  0.49553  1.0000
  O   O38       1.0  0.17031  0.01620  0.49582  1.0000
  O   O39       1.0  0.17060  0.51596  0.99625  1.0000
  O   O40       1.0  0.67056  0.01671  0.99534  1.0000
  O   O41       1.0  0.74104  0.76082  0.93511  1.0000
  O   O42       1.0  0.23823  0.25826  0.93652  1.0000
  O   O43       1.0  0.23835  0.75776  0.43720  1.0000
  O   O44       1.0  0.73994  0.26211  0.43439  1.0000
  O   O45       1.0  0.49858  0.52164  0.30756  1.0000
  O   O46       1.0  0.99951  0.02483  0.30776  1.0000
  O   O47       1.0  0.99947  0.52364  0.80842  1.0000
  O   O48       1.0  0.50092  0.02323  0.80674  1.0000
  O   O49       1.0  0.06397  0.95325  0.05230  1.0000
  O   O50       1.0  0.55469  0.44975  0.04554  1.0000
  O   O51       1.0  0.55676  0.95078  0.54833  1.0000
  O   O52       1.0  0.06028  0.45160  0.55103  1.0000
  O   O53       1.0  0.75117  0.94864  0.75590  1.0000
  O   O54       1.0  0.25353  0.44607  0.75892  1.0000
  O   O55       1.0  0.25575  0.94430  0.26007  1.0000
  O   O56       1.0  0.74732  0.45296  0.25356  1.0000
