data_image0
_chemical_formula_structural       In32Bi32O96
_chemical_formula_sum              "In32 Bi32 O96"
_cell_length_a       11.2684
_cell_length_b       11.9522
_cell_length_c       16.6927
_cell_angle_alpha    89.9969
_cell_angle_beta     89.9991
_cell_angle_gamma    90.0005

_space_group_name_H-M_alt    "P 1"
_space_group_IT_number       1

loop_
  _space_group_symop_operation_xyz
  'x, y, z'

loop_
  _atom_site_type_symbol
  _atom_site_label
  _atom_site_symmetry_multiplicity
  _atom_site_fract_x
  _atom_site_fract_y
  _atom_site_fract_z
  _atom_site_occupancy
  In  In1       1.0  0.50020  0.25031  0.25821  1.0000
  In  In2       1.0  0.50016  0.25022  0.75825  1.0000
  In  In3       1.0  0.50011  0.75030  0.25825  1.0000
  In  In4       1.0  0.50013  0.75026  0.75823  1.0000
  In  In5       1.0  0.00015  0.25032  0.25824  1.0000
  In  In6       1.0  0.00014  0.25022  0.75825  1.0000
  In  In7       1.0  0.00012  0.75033  0.25823  1.0000
  In  In8       1.0  0.00018  0.75022  0.75819  1.0000
  In  In9       1.0  0.00076  0.25053  0.00822  1.0000
  In  In10      1.0  0.00075  0.25054  0.50823  1.0000
  In  In11      1.0  0.00072  0.75055  0.00821  1.0000
  In  In12      1.0  0.00079  0.75055  0.50823  1.0000
  In  In13      1.0  0.50079  0.25047  0.00829  1.0000
  In  In14      1.0  0.50076  0.25056  0.50824  1.0000
  In  In15      1.0  0.50074  0.75053  0.00822  1.0000
  In  In16      1.0  0.50068  0.75053  0.50826  1.0000
  In  In17      1.0  0.25012  0.50056  0.00821  1.0000
  In  In18      1.0  0.25014  0.50055  0.50825  1.0000
  In  In19      1.0  0.25011  0.00055  0.00821  1.0000
  In  In20      1.0  0.25012  0.00059  0.50821  1.0000
  In  In21      1.0  0.75017  0.50054  0.00824  1.0000
  In  In22      1.0  0.75008  0.50054  0.50825  1.0000
  In  In23      1.0  0.75017  0.00049  0.00823  1.0000
  In  In24      1.0  0.75011  0.00054  0.50823  1.0000
  In  In25      1.0  0.25076  0.00033  0.25822  1.0000
  In  In26      1.0  0.25070  0.00023  0.75825  1.0000
  In  In27      1.0  0.25078  0.50032  0.25821  1.0000
  In  In28      1.0  0.25072  0.50025  0.75823  1.0000
  In  In29      1.0  0.75075  0.00024  0.25822  1.0000
  In  In30      1.0  0.75075  0.00022  0.75821  1.0000
  In  In31      1.0  0.75069  0.50031  0.25825  1.0000
  In  In32      1.0  0.75077  0.50029  0.75824  1.0000
  Bi  Bi1       1.0  0.49983  0.47039  0.39650  1.0000
  Bi  Bi2       1.0  0.49989  0.47034  0.89648  1.0000
  Bi  Bi3       1.0  0.49981  0.97040  0.39647  1.0000
  Bi  Bi4       1.0  0.49980  0.97038  0.89650  1.0000
  Bi  Bi5       1.0  0.99976  0.47044  0.39652  1.0000
  Bi  Bi6       1.0  0.99982  0.47037  0.89647  1.0000
  Bi  Bi7       1.0  0.99981  0.97038  0.39650  1.0000
  Bi  Bi8       1.0  0.99983  0.97036  0.89644  1.0000
  Bi  Bi9       1.0  0.25110  0.22046  0.39651  1.0000
  Bi  Bi10      1.0  0.25112  0.22038  0.89648  1.0000
  Bi  Bi11      1.0  0.25105  0.72037  0.39647  1.0000
  Bi  Bi12      1.0  0.25110  0.72037  0.89646  1.0000
  Bi  Bi13      1.0  0.75108  0.22038  0.39649  1.0000
  Bi  Bi14      1.0  0.75109  0.22036  0.89650  1.0000
  Bi  Bi15      1.0  0.75106  0.72039  0.39653  1.0000
  Bi  Bi16      1.0  0.75112  0.72037  0.89646  1.0000
  Bi  Bi17      1.0  0.24985  0.28046  0.14644  1.0000
  Bi  Bi18      1.0  0.24980  0.28043  0.64650  1.0000
  Bi  Bi19      1.0  0.24983  0.78053  0.14648  1.0000
  Bi  Bi20      1.0  0.24988  0.78043  0.64646  1.0000
  Bi  Bi21      1.0  0.74993  0.28045  0.14649  1.0000
  Bi  Bi22      1.0  0.74986  0.28043  0.64650  1.0000
  Bi  Bi23      1.0  0.74986  0.78043  0.14650  1.0000
  Bi  Bi24      1.0  0.74984  0.78040  0.64644  1.0000
  Bi  Bi25      1.0  0.00108  0.03049  0.14649  1.0000
  Bi  Bi26      1.0  0.00106  0.03044  0.64646  1.0000
  Bi  Bi27      1.0  0.00105  0.53049  0.14652  1.0000
  Bi  Bi28      1.0  0.00108  0.53037  0.64645  1.0000
  Bi  Bi29      1.0  0.50111  0.03045  0.14650  1.0000
  Bi  Bi30      1.0  0.50103  0.03043  0.64649  1.0000
  Bi  Bi31      1.0  0.50109  0.53051  0.14641  1.0000
  Bi  Bi32      1.0  0.50103  0.53041  0.64653  1.0000
  O   O1        1.0  0.40206  0.39673  0.21858  1.0000
  O   O2        1.0  0.40200  0.39662  0.71872  1.0000
  O   O3        1.0  0.40203  0.89677  0.21871  1.0000
  O   O4        1.0  0.40202  0.89666  0.71865  1.0000
  O   O5        1.0  0.90204  0.39677  0.21870  1.0000
  O   O6        1.0  0.90200  0.39666  0.71867  1.0000
  O   O7        1.0  0.90204  0.89671  0.21865  1.0000
  O   O8        1.0  0.90203  0.89667  0.71861  1.0000
  O   O9        1.0  0.05754  0.22620  0.12933  1.0000
  O   O10       1.0  0.05751  0.22617  0.62935  1.0000
  O   O11       1.0  0.05758  0.72614  0.12932  1.0000
  O   O12       1.0  0.05762  0.72607  0.62933  1.0000
  O   O13       1.0  0.55767  0.22610  0.12936  1.0000
  O   O14       1.0  0.55751  0.22614  0.62936  1.0000
  O   O15       1.0  0.55749  0.72618  0.12932  1.0000
  O   O16       1.0  0.55752  0.72610  0.62938  1.0000
  O   O17       1.0  0.44344  0.27472  0.37932  1.0000
  O   O18       1.0  0.44349  0.27458  0.87937  1.0000
  O   O19       1.0  0.44331  0.77468  0.37936  1.0000
  O   O20       1.0  0.44341  0.77467  0.87933  1.0000
  O   O21       1.0  0.94339  0.27469  0.37934  1.0000
  O   O22       1.0  0.94333  0.27468  0.87935  1.0000
  O   O23       1.0  0.94341  0.77470  0.37935  1.0000
  O   O24       1.0  0.94334  0.77464  0.87931  1.0000
  O   O25       1.0  0.08067  0.08227  0.26352  1.0000
  O   O26       1.0  0.08059  0.08213  0.76353  1.0000
  O   O27       1.0  0.08067  0.58222  0.26356  1.0000
  O   O28       1.0  0.08063  0.58214  0.76353  1.0000
  O   O29       1.0  0.58066  0.08220  0.26353  1.0000
  O   O30       1.0  0.58064  0.08213  0.76354  1.0000
  O   O31       1.0  0.58052  0.58218  0.26351  1.0000
  O   O32       1.0  0.58061  0.58215  0.76357  1.0000
  O   O33       1.0  0.33068  0.16861  0.01355  1.0000
  O   O34       1.0  0.33067  0.16867  0.51353  1.0000
  O   O35       1.0  0.33065  0.66863  0.01353  1.0000
  O   O36       1.0  0.33059  0.66861  0.51351  1.0000
  O   O37       1.0  0.83062  0.16862  0.01354  1.0000
  O   O38       1.0  0.83063  0.16857  0.51354  1.0000
  O   O39       1.0  0.83062  0.66859  0.01351  1.0000
  O   O40       1.0  0.83068  0.66860  0.51355  1.0000
  O   O41       1.0  0.17031  0.33222  0.26349  1.0000
  O   O42       1.0  0.17024  0.33214  0.76357  1.0000
  O   O43       1.0  0.17024  0.83231  0.26350  1.0000
  O   O44       1.0  0.17025  0.83214  0.76350  1.0000
  O   O45       1.0  0.67033  0.33220  0.26355  1.0000
  O   O46       1.0  0.67027  0.33218  0.76355  1.0000
  O   O47       1.0  0.67023  0.83216  0.26355  1.0000
  O   O48       1.0  0.67032  0.83216  0.76352  1.0000
  O   O49       1.0  0.42022  0.41856  0.01355  1.0000
  O   O50       1.0  0.42026  0.41864  0.51354  1.0000
  O   O51       1.0  0.42021  0.91859  0.01350  1.0000
  O   O52       1.0  0.42022  0.91861  0.51353  1.0000
  O   O53       1.0  0.92029  0.41865  0.01354  1.0000
  O   O54       1.0  0.92018  0.41861  0.51354  1.0000
  O   O55       1.0  0.92024  0.91858  0.01347  1.0000
  O   O56       1.0  0.92026  0.91863  0.51355  1.0000
  O   O57       1.0  0.30758  0.02482  0.37933  1.0000
  O   O58       1.0  0.30749  0.02468  0.87934  1.0000
  O   O59       1.0  0.30755  0.52467  0.37932  1.0000
  O   O60       1.0  0.30759  0.52469  0.87935  1.0000
  O   O61       1.0  0.80750  0.02466  0.37935  1.0000
  O   O62       1.0  0.80751  0.02468  0.87933  1.0000
  O   O63       1.0  0.80745  0.52471  0.37936  1.0000
  O   O64       1.0  0.80753  0.52471  0.87934  1.0000
  O   O65       1.0  0.09890  0.10417  0.46866  1.0000
  O   O66       1.0  0.09884  0.10412  0.96861  1.0000
  O   O67       1.0  0.09886  0.60412  0.46866  1.0000
  O   O68       1.0  0.09890  0.60413  0.96859  1.0000
  O   O69       1.0  0.59883  0.10412  0.46865  1.0000
  O   O70       1.0  0.59885  0.10406  0.96869  1.0000
  O   O71       1.0  0.59889  0.60416  0.46865  1.0000
  O   O72       1.0  0.59883  0.60407  0.96869  1.0000
  O   O73       1.0  0.34895  0.14674  0.21858  1.0000
  O   O74       1.0  0.34890  0.14665  0.71867  1.0000
  O   O75       1.0  0.34881  0.64676  0.21864  1.0000
  O   O76       1.0  0.34888  0.64665  0.71864  1.0000
  O   O77       1.0  0.84890  0.14673  0.21867  1.0000
  O   O78       1.0  0.84882  0.14669  0.71869  1.0000
  O   O79       1.0  0.84886  0.64669  0.21866  1.0000
  O   O80       1.0  0.84888  0.64667  0.71864  1.0000
  O   O81       1.0  0.19338  0.47620  0.12932  1.0000
  O   O82       1.0  0.19337  0.47609  0.62935  1.0000
  O   O83       1.0  0.19338  0.97624  0.12934  1.0000
  O   O84       1.0  0.19334  0.97615  0.62934  1.0000
  O   O85       1.0  0.69333  0.47617  0.12933  1.0000
  O   O86       1.0  0.69332  0.47614  0.62936  1.0000
  O   O87       1.0  0.69337  0.97606  0.12934  1.0000
  O   O88       1.0  0.69335  0.97611  0.62936  1.0000
  O   O89       1.0  0.15200  0.35417  0.46865  1.0000
  O   O90       1.0  0.15203  0.35414  0.96863  1.0000
  O   O91       1.0  0.15204  0.85416  0.46862  1.0000
  O   O92       1.0  0.15203  0.85411  0.96862  1.0000
  O   O93       1.0  0.65204  0.35409  0.46870  1.0000
  O   O94       1.0  0.65206  0.35410  0.96870  1.0000
  O   O95       1.0  0.65201  0.85412  0.46871  1.0000
  O   O96       1.0  0.65199  0.85409  0.96863  1.0000
