data_image0
_chemical_formula_structural       Rb16Na16Ti16O48
_chemical_formula_sum              "Rb16 Na16 Ti16 O48"
_cell_length_a       10.9534
_cell_length_b       11.7413
_cell_length_c       11.0922
_cell_angle_alpha    87.3824
_cell_angle_beta     89.9955
_cell_angle_gamma    90.0187

_space_group_name_H-M_alt    "P 1"
_space_group_IT_number       1

loop_
  _space_group_symop_operation_xyz
  'x, y, z'

loop_
  _atom_site_type_symbol
  _atom_site_label
  _atom_site_symmetry_multiplicity
  _atom_site_fract_x
  _atom_site_fract_y
  _atom_site_fract_z
  _atom_site_occupancy
  Rb  Rb1       1.0  0.23284  0.25018  0.37553  1.0000
  Rb  Rb2       1.0  0.23272  0.25022  0.87558  1.0000
  Rb  Rb3       1.0  0.73263  0.50026  0.37555  1.0000
  Rb  Rb4       1.0  0.73266  0.50025  0.87555  1.0000
  Rb  Rb5       1.0  0.23260  0.75013  0.37559  1.0000
  Rb  Rb6       1.0  0.23258  0.75017  0.87558  1.0000
  Rb  Rb7       1.0  0.73252  0.00026  0.37549  1.0000
  Rb  Rb8       1.0  0.73272  0.00023  0.87544  1.0000
  Rb  Rb9       1.0  0.76845  0.25013  0.12552  1.0000
  Rb  Rb10      1.0  0.76841  0.25029  0.62553  1.0000
  Rb  Rb11      1.0  0.26839  0.50014  0.12556  1.0000
  Rb  Rb12      1.0  0.26833  0.50005  0.62557  1.0000
  Rb  Rb13      1.0  0.76837  0.75024  0.12561  1.0000
  Rb  Rb14      1.0  0.76844  0.75025  0.62559  1.0000
  Rb  Rb15      1.0  0.26849  0.00013  0.12556  1.0000
  Rb  Rb16      1.0  0.26822  0.00008  0.62555  1.0000
  Na  Na1       1.0  0.92417  0.25108  0.37545  1.0000
  Na  Na2       1.0  0.92417  0.25103  0.87550  1.0000
  Na  Na3       1.0  0.42415  0.50108  0.37545  1.0000
  Na  Na4       1.0  0.42417  0.50100  0.87546  1.0000
  Na  Na5       1.0  0.92415  0.75098  0.37549  1.0000
  Na  Na6       1.0  0.92416  0.75114  0.87552  1.0000
  Na  Na7       1.0  0.42412  0.00092  0.37545  1.0000
  Na  Na8       1.0  0.42419  0.00086  0.87547  1.0000
  Na  Na9       1.0  0.07669  0.25107  0.12538  1.0000
  Na  Na10      1.0  0.07665  0.25132  0.62533  1.0000
  Na  Na11      1.0  0.57663  0.50124  0.12532  1.0000
  Na  Na12      1.0  0.57658  0.50115  0.62534  1.0000
  Na  Na13      1.0  0.07660  0.75121  0.12538  1.0000
  Na  Na14      1.0  0.07665  0.75135  0.62535  1.0000
  Na  Na15      1.0  0.57669  0.00121  0.12528  1.0000
  Na  Na16      1.0  0.57662  0.00124  0.62534  1.0000
  Ti  Ti1       1.0  0.44895  0.25034  0.12552  1.0000
  Ti  Ti2       1.0  0.44885  0.25025  0.62556  1.0000
  Ti  Ti3       1.0  0.94887  0.50032  0.12557  1.0000
  Ti  Ti4       1.0  0.94889  0.50047  0.62553  1.0000
  Ti  Ti5       1.0  0.44889  0.75035  0.12550  1.0000
  Ti  Ti6       1.0  0.44890  0.75032  0.62557  1.0000
  Ti  Ti7       1.0  0.94892  0.00037  0.12550  1.0000
  Ti  Ti8       1.0  0.94889  0.00043  0.62548  1.0000
  Ti  Ti9       1.0  0.55203  0.25035  0.37552  1.0000
  Ti  Ti10      1.0  0.55208  0.25027  0.87553  1.0000
  Ti  Ti11      1.0  0.05208  0.50034  0.37551  1.0000
  Ti  Ti12      1.0  0.05202  0.50038  0.87556  1.0000
  Ti  Ti13      1.0  0.55201  0.75035  0.37553  1.0000
  Ti  Ti14      1.0  0.55209  0.75033  0.87553  1.0000
  Ti  Ti15      1.0  0.05201  0.00031  0.37549  1.0000
  Ti  Ti16      1.0  0.05209  0.00040  0.87546  1.0000
  O   O1        1.0  0.99166  0.39267  0.49985  1.0000
  O   O2        1.0  0.99172  0.39262  0.99983  1.0000
  O   O3        1.0  0.49160  0.64260  0.49977  1.0000
  O   O4        1.0  0.49161  0.64263  0.99975  1.0000
  O   O5        1.0  0.99163  0.89266  0.49979  1.0000
  O   O6        1.0  0.99178  0.89267  0.99978  1.0000
  O   O7        1.0  0.49166  0.14259  0.49977  1.0000
  O   O8        1.0  0.49171  0.14259  0.99979  1.0000
  O   O9        1.0  0.99178  0.10801  0.25118  1.0000
  O   O10       1.0  0.99176  0.10809  0.75120  1.0000
  O   O11       1.0  0.49171  0.35800  0.25126  1.0000
  O   O12       1.0  0.49163  0.35793  0.75123  1.0000
  O   O13       1.0  0.99173  0.60798  0.25129  1.0000
  O   O14       1.0  0.99164  0.60806  0.75127  1.0000
  O   O15       1.0  0.49176  0.85801  0.25124  1.0000
  O   O16       1.0  0.49177  0.85798  0.75123  1.0000
  O   O17       1.0  0.28754  0.25011  0.12557  1.0000
  O   O18       1.0  0.28742  0.24998  0.62560  1.0000
  O   O19       1.0  0.78745  0.50011  0.12562  1.0000
  O   O20       1.0  0.78743  0.50022  0.62553  1.0000
  O   O21       1.0  0.28746  0.75019  0.12556  1.0000
  O   O22       1.0  0.28747  0.75009  0.62565  1.0000
  O   O23       1.0  0.78749  0.00022  0.12547  1.0000
  O   O24       1.0  0.78744  0.00024  0.62547  1.0000
  O   O25       1.0  0.00928  0.10802  0.00120  1.0000
  O   O26       1.0  0.00921  0.10805  0.50116  1.0000
  O   O27       1.0  0.50933  0.35795  0.00124  1.0000
  O   O28       1.0  0.50909  0.35798  0.50125  1.0000
  O   O29       1.0  0.00913  0.60802  0.00126  1.0000
  O   O30       1.0  0.00929  0.60804  0.50128  1.0000
  O   O31       1.0  0.50932  0.85797  0.00124  1.0000
  O   O32       1.0  0.50916  0.85798  0.50124  1.0000
  O   O33       1.0  0.00929  0.39261  0.24980  1.0000
  O   O34       1.0  0.00926  0.39269  0.74980  1.0000
  O   O35       1.0  0.50926  0.64263  0.24977  1.0000
  O   O36       1.0  0.50936  0.64260  0.74977  1.0000
  O   O37       1.0  0.00912  0.89260  0.24981  1.0000
  O   O38       1.0  0.00925  0.89272  0.74976  1.0000
  O   O39       1.0  0.50935  0.14260  0.24979  1.0000
  O   O40       1.0  0.50926  0.14256  0.74977  1.0000
  O   O41       1.0  0.71345  0.25030  0.37558  1.0000
  O   O42       1.0  0.71349  0.25015  0.87548  1.0000
  O   O43       1.0  0.21346  0.50018  0.37557  1.0000
  O   O44       1.0  0.21340  0.50032  0.87558  1.0000
  O   O45       1.0  0.71342  0.75023  0.37561  1.0000
  O   O46       1.0  0.71353  0.75022  0.87559  1.0000
  O   O47       1.0  0.21342  0.00010  0.37552  1.0000
  O   O48       1.0  0.21352  0.00022  0.87553  1.0000
