data_image0
_chemical_formula_structural       Cs32Si32O80
_chemical_formula_sum              "Cs32 Si32 O80"
_cell_length_a       17.306
_cell_length_b       10.1455
_cell_length_c       15.5817
_cell_angle_alpha    90.2763
_cell_angle_beta     90.0045
_cell_angle_gamma    89.9969

_space_group_name_H-M_alt    "P 1"
_space_group_IT_number       1

loop_
  _space_group_symop_operation_xyz
  'x, y, z'

loop_
  _atom_site_type_symbol
  _atom_site_label
  _atom_site_symmetry_multiplicity
  _atom_site_fract_x
  _atom_site_fract_y
  _atom_site_fract_z
  _atom_site_occupancy
  Cs  Cs1       1.0  0.06635  0.59145  0.41046  1.0000
  Cs  Cs2       1.0  0.56629  0.59144  0.41053  1.0000
  Cs  Cs3       1.0  0.04957  0.15384  0.41803  1.0000
  Cs  Cs4       1.0  0.54953  0.15372  0.41808  1.0000
  Cs  Cs5       1.0  0.43675  0.15810  0.91576  1.0000
  Cs  Cs6       1.0  0.93688  0.15824  0.91570  1.0000
  Cs  Cs7       1.0  0.29946  0.34720  0.08258  1.0000
  Cs  Cs8       1.0  0.79944  0.34731  0.08243  1.0000
  Cs  Cs9       1.0  0.45103  0.84747  0.58259  1.0000
  Cs  Cs10      1.0  0.95094  0.84714  0.58264  1.0000
  Cs  Cs11      1.0  0.44009  0.59195  0.90933  1.0000
  Cs  Cs12      1.0  0.94022  0.59216  0.90938  1.0000
  Cs  Cs13      1.0  0.20116  0.65377  0.91812  1.0000
  Cs  Cs14      1.0  0.70089  0.65359  0.91805  1.0000
  Cs  Cs15      1.0  0.06028  0.40914  0.09148  1.0000
  Cs  Cs16      1.0  0.56043  0.40907  0.09134  1.0000
  Cs  Cs17      1.0  0.18675  0.34293  0.58493  1.0000
  Cs  Cs18      1.0  0.68683  0.34312  0.58482  1.0000
  Cs  Cs19      1.0  0.18418  0.09146  0.91046  1.0000
  Cs  Cs20      1.0  0.68405  0.09149  0.91050  1.0000
  Cs  Cs21      1.0  0.43413  0.40957  0.59011  1.0000
  Cs  Cs22      1.0  0.93404  0.40930  0.58993  1.0000
  Cs  Cs23      1.0  0.31640  0.90953  0.09013  1.0000
  Cs  Cs24      1.0  0.81640  0.90961  0.08999  1.0000
  Cs  Cs25      1.0  0.31040  0.09190  0.40934  1.0000
  Cs  Cs26      1.0  0.81048  0.09198  0.40934  1.0000
  Cs  Cs27      1.0  0.19021  0.90882  0.59137  1.0000
  Cs  Cs28      1.0  0.69019  0.90901  0.59137  1.0000
  Cs  Cs29      1.0  0.31376  0.65812  0.41580  1.0000
  Cs  Cs30      1.0  0.81364  0.65813  0.41574  1.0000
  Cs  Cs31      1.0  0.06374  0.84304  0.08484  1.0000
  Cs  Cs32      1.0  0.56372  0.84296  0.08496  1.0000
  Si  Si1       1.0  0.21998  0.63740  0.19810  1.0000
  Si  Si2       1.0  0.71992  0.63740  0.19804  1.0000
  Si  Si3       1.0  0.47001  0.86358  0.30262  1.0000
  Si  Si4       1.0  0.96993  0.86361  0.30256  1.0000
  Si  Si5       1.0  0.28890  0.62268  0.69636  1.0000
  Si  Si6       1.0  0.78887  0.62263  0.69632  1.0000
  Si  Si7       1.0  0.34230  0.11794  0.69247  1.0000
  Si  Si8       1.0  0.84229  0.11790  0.69252  1.0000
  Si  Si9       1.0  0.03889  0.87833  0.80435  1.0000
  Si  Si10      1.0  0.53890  0.87830  0.80432  1.0000
  Si  Si11      1.0  0.35013  0.86695  0.80487  1.0000
  Si  Si12      1.0  0.85007  0.86696  0.80487  1.0000
  Si  Si13      1.0  0.21167  0.37824  0.30431  1.0000
  Si  Si14      1.0  0.71163  0.37830  0.30430  1.0000
  Si  Si15      1.0  0.40043  0.36691  0.30487  1.0000
  Si  Si16      1.0  0.90040  0.36691  0.30482  1.0000
  Si  Si17      1.0  0.03057  0.13735  0.69801  1.0000
  Si  Si18      1.0  0.53055  0.13730  0.69804  1.0000
  Si  Si19      1.0  0.28056  0.36361  0.80260  1.0000
  Si  Si20      1.0  0.78064  0.36361  0.80264  1.0000
  Si  Si21      1.0  0.15037  0.13397  0.19577  1.0000
  Si  Si22      1.0  0.65044  0.13396  0.19577  1.0000
  Si  Si23      1.0  0.15822  0.88304  0.30820  1.0000
  Si  Si24      1.0  0.65830  0.88309  0.30815  1.0000
  Si  Si25      1.0  0.10011  0.63402  0.69578  1.0000
  Si  Si26      1.0  0.60009  0.63398  0.69578  1.0000
  Si  Si27      1.0  0.09225  0.38306  0.80814  1.0000
  Si  Si28      1.0  0.59229  0.38294  0.80815  1.0000
  Si  Si29      1.0  0.40823  0.61785  0.19252  1.0000
  Si  Si30      1.0  0.90820  0.61795  0.19249  1.0000
  Si  Si31      1.0  0.46172  0.12273  0.19637  1.0000
  Si  Si32      1.0  0.96162  0.12268  0.19632  1.0000
  O   O1        1.0  0.06386  0.11350  0.60472  1.0000
  O   O2        1.0  0.56381  0.11343  0.60476  1.0000
  O   O3        1.0  0.42823  0.22008  0.27230  1.0000
  O   O4        1.0  0.92811  0.22004  0.27222  1.0000
  O   O5        1.0  0.32239  0.72004  0.77231  1.0000
  O   O6        1.0  0.82228  0.72013  0.77224  1.0000
  O   O7        1.0  0.07230  0.78090  0.72836  1.0000
  O   O8        1.0  0.57242  0.78086  0.72843  1.0000
  O   O9        1.0  0.43893  0.63671  0.09790  1.0000
  O   O10       1.0  0.93896  0.63693  0.09791  1.0000
  O   O11       1.0  0.18676  0.61354  0.10479  1.0000
  O   O12       1.0  0.68662  0.61355  0.10475  1.0000
  O   O13       1.0  0.06455  0.86486  0.29903  1.0000
  O   O14       1.0  0.56464  0.86500  0.29902  1.0000
  O   O15       1.0  0.32233  0.96931  0.72897  1.0000
  O   O16       1.0  0.82229  0.96935  0.72901  1.0000
  O   O17       1.0  0.44479  0.86310  0.79923  1.0000
  O   O18       1.0  0.94476  0.86315  0.79937  1.0000
  O   O19       1.0  0.31460  0.63629  0.20183  1.0000
  O   O20       1.0  0.81454  0.63608  0.20163  1.0000
  O   O21       1.0  0.42818  0.46926  0.22902  1.0000
  O   O22       1.0  0.92811  0.46933  0.22898  1.0000
  O   O23       1.0  0.42731  0.14739  0.10397  1.0000
  O   O24       1.0  0.92728  0.14751  0.10391  1.0000
  O   O25       1.0  0.17818  0.03159  0.27163  1.0000
  O   O26       1.0  0.67825  0.03165  0.27164  1.0000
  O   O27       1.0  0.30872  0.47231  0.73050  1.0000
  O   O28       1.0  0.80873  0.47237  0.73055  1.0000
  O   O29       1.0  0.31379  0.38741  0.89592  1.0000
  O   O30       1.0  0.81389  0.38741  0.89596  1.0000
  O   O31       1.0  0.07333  0.85357  0.89674  1.0000
  O   O32       1.0  0.57323  0.85345  0.89676  1.0000
  O   O33       1.0  0.43594  0.13617  0.70173  1.0000
  O   O34       1.0  0.93596  0.13607  0.70164  1.0000
  O   O35       1.0  0.30576  0.36295  0.29928  1.0000
  O   O36       1.0  0.80574  0.36306  0.29930  1.0000
  O   O37       1.0  0.18593  0.36482  0.79896  1.0000
  O   O38       1.0  0.68599  0.36485  0.79900  1.0000
  O   O39       1.0  0.06146  0.36404  0.90272  1.0000
  O   O40       1.0  0.56149  0.36396  0.90275  1.0000
  O   O41       1.0  0.19479  0.63792  0.70136  1.0000
  O   O42       1.0  0.69476  0.63775  0.70121  1.0000
  O   O43       1.0  0.30503  0.21913  0.76379  1.0000
  O   O44       1.0  0.80510  0.21917  0.76380  1.0000
  O   O45       1.0  0.17726  0.35357  0.39673  1.0000
  O   O46       1.0  0.67723  0.35355  0.39671  1.0000
  O   O47       1.0  0.19186  0.52860  0.27015  1.0000
  O   O48       1.0  0.69183  0.52871  0.27020  1.0000
  O   O49       1.0  0.18909  0.86410  0.40278  1.0000
  O   O50       1.0  0.68909  0.86411  0.40272  1.0000
  O   O51       1.0  0.17814  0.28084  0.22839  1.0000
  O   O52       1.0  0.67820  0.28085  0.22835  1.0000
  O   O53       1.0  0.19539  0.78181  0.23685  1.0000
  O   O54       1.0  0.69543  0.78185  0.23680  1.0000
  O   O55       1.0  0.18187  0.10147  0.10277  1.0000
  O   O56       1.0  0.68189  0.10145  0.10275  1.0000
  O   O57       1.0  0.44560  0.71911  0.26373  1.0000
  O   O58       1.0  0.94546  0.71911  0.26381  1.0000
  O   O59       1.0  0.05571  0.13778  0.20139  1.0000
  O   O60       1.0  0.55581  0.13786  0.20137  1.0000
  O   O61       1.0  0.43670  0.88721  0.39594  1.0000
  O   O62       1.0  0.93661  0.88740  0.39583  1.0000
  O   O63       1.0  0.07230  0.53169  0.77168  1.0000
  O   O64       1.0  0.57235  0.53161  0.77168  1.0000
  O   O65       1.0  0.31864  0.89956  0.89789  1.0000
  O   O66       1.0  0.81855  0.89951  0.89786  1.0000
  O   O67       1.0  0.05505  0.28183  0.73679  1.0000
  O   O68       1.0  0.55514  0.28174  0.73677  1.0000
  O   O69       1.0  0.31150  0.13693  0.59788  1.0000
  O   O70       1.0  0.81151  0.13690  0.59794  1.0000
  O   O71       1.0  0.32329  0.64751  0.60398  1.0000
  O   O72       1.0  0.82332  0.64732  0.60393  1.0000
  O   O73       1.0  0.44192  0.97236  0.23054  1.0000
  O   O74       1.0  0.94187  0.97230  0.23044  1.0000
  O   O75       1.0  0.05875  0.02863  0.77013  1.0000
  O   O76       1.0  0.55865  0.02864  0.77015  1.0000
  O   O77       1.0  0.06860  0.60134  0.60278  1.0000
  O   O78       1.0  0.56845  0.60141  0.60285  1.0000
  O   O79       1.0  0.43188  0.39952  0.39786  1.0000
  O   O80       1.0  0.93197  0.39940  0.39781  1.0000
