data_image0
_chemical_formula_structural       Ba12Ti24O60
_chemical_formula_sum              "Ba12 Ti24 O60"
_cell_length_a       11.7872
_cell_length_b       10.2899
_cell_length_c       10.9561
_cell_angle_alpha    90.0015
_cell_angle_beta     90.0025
_cell_angle_gamma    89.9995

_space_group_name_H-M_alt    "P 1"
_space_group_IT_number       1

loop_
  _space_group_symop_operation_xyz
  'x, y, z'

loop_
  _atom_site_type_symbol
  _atom_site_label
  _atom_site_symmetry_multiplicity
  _atom_site_fract_x
  _atom_site_fract_y
  _atom_site_fract_z
  _atom_site_occupancy
  Ba  Ba1       1.0  0.08380  0.04918  0.17533  1.0000
  Ba  Ba2       1.0  0.41718  0.04922  0.17522  1.0000
  Ba  Ba3       1.0  0.75048  0.04923  0.17522  1.0000
  Ba  Ba4       1.0  0.25043  0.45174  0.67522  1.0000
  Ba  Ba5       1.0  0.58383  0.45173  0.67531  1.0000
  Ba  Ba6       1.0  0.91715  0.45170  0.67533  1.0000
  Ba  Ba7       1.0  0.08382  0.54921  0.32573  1.0000
  Ba  Ba8       1.0  0.41722  0.54917  0.32569  1.0000
  Ba  Ba9       1.0  0.75046  0.54915  0.32565  1.0000
  Ba  Ba10      1.0  0.25045  0.95175  0.82576  1.0000
  Ba  Ba11      1.0  0.58379  0.95176  0.82564  1.0000
  Ba  Ba12      1.0  0.91710  0.95170  0.82570  1.0000
  Ti  Ti1       1.0  0.25052  0.23057  0.39672  1.0000
  Ti  Ti2       1.0  0.58384  0.23059  0.39677  1.0000
  Ti  Ti3       1.0  0.91714  0.23063  0.39674  1.0000
  Ti  Ti4       1.0  0.25052  0.85519  0.40852  1.0000
  Ti  Ti5       1.0  0.58383  0.85514  0.40853  1.0000
  Ti  Ti6       1.0  0.91708  0.85520  0.40856  1.0000
  Ti  Ti7       1.0  0.08387  0.14576  0.59222  1.0000
  Ti  Ti8       1.0  0.41708  0.14576  0.59227  1.0000
  Ti  Ti9       1.0  0.75054  0.14576  0.59230  1.0000
  Ti  Ti10      1.0  0.25050  0.35521  0.09233  1.0000
  Ti  Ti11      1.0  0.58386  0.35516  0.09225  1.0000
  Ti  Ti12      1.0  0.91711  0.35524  0.09226  1.0000
  Ti  Ti13      1.0  0.25048  0.73059  0.10417  1.0000
  Ti  Ti14      1.0  0.58382  0.73059  0.10407  1.0000
  Ti  Ti15      1.0  0.91708  0.73055  0.10412  1.0000
  Ti  Ti16      1.0  0.08384  0.27028  0.89673  1.0000
  Ti  Ti17      1.0  0.41711  0.27030  0.89674  1.0000
  Ti  Ti18      1.0  0.75050  0.27028  0.89675  1.0000
  Ti  Ti19      1.0  0.08384  0.77037  0.60413  1.0000
  Ti  Ti20      1.0  0.41709  0.77027  0.60410  1.0000
  Ti  Ti21      1.0  0.75049  0.77030  0.60410  1.0000
  Ti  Ti22      1.0  0.08385  0.64581  0.90860  1.0000
  Ti  Ti23      1.0  0.41704  0.64579  0.90855  1.0000
  Ti  Ti24      1.0  0.75048  0.64580  0.90854  1.0000
  O   O1        1.0  0.25047  0.23658  0.21979  1.0000
  O   O2        1.0  0.58383  0.23668  0.21983  1.0000
  O   O3        1.0  0.91711  0.23670  0.21983  1.0000
  O   O4        1.0  0.08377  0.32946  0.06949  1.0000
  O   O5        1.0  0.41712  0.32948  0.06947  1.0000
  O   O6        1.0  0.75048  0.32946  0.06952  1.0000
  O   O7        1.0  0.25044  0.30222  0.91782  1.0000
  O   O8        1.0  0.58380  0.30220  0.91776  1.0000
  O   O9        1.0  0.91713  0.30218  0.91779  1.0000
  O   O10       1.0  0.25050  0.51453  0.15025  1.0000
  O   O11       1.0  0.58384  0.51447  0.15012  1.0000
  O   O12       1.0  0.91712  0.51459  0.15011  1.0000
  O   O13       1.0  0.08383  0.48645  0.85080  1.0000
  O   O14       1.0  0.41709  0.48639  0.85083  1.0000
  O   O15       1.0  0.75049  0.48641  0.85077  1.0000
  O   O16       1.0  0.08380  0.69875  0.08311  1.0000
  O   O17       1.0  0.41714  0.69868  0.08304  1.0000
  O   O18       1.0  0.75044  0.69871  0.08306  1.0000
  O   O19       1.0  0.08384  0.98644  0.65017  1.0000
  O   O20       1.0  0.41713  0.98643  0.65014  1.0000
  O   O21       1.0  0.75048  0.98641  0.65012  1.0000
  O   O22       1.0  0.08385  0.26430  0.71978  1.0000
  O   O23       1.0  0.41709  0.26433  0.71981  1.0000
  O   O24       1.0  0.75052  0.26436  0.71985  1.0000
  O   O25       1.0  0.25047  0.80222  0.58302  1.0000
  O   O26       1.0  0.58379  0.80215  0.58304  1.0000
  O   O27       1.0  0.91716  0.80224  0.58302  1.0000
  O   O28       1.0  0.08375  0.60163  0.57553  1.0000
  O   O29       1.0  0.41709  0.60151  0.57562  1.0000
  O   O30       1.0  0.75052  0.60155  0.57556  1.0000
  O   O31       1.0  0.25047  0.73655  0.28109  1.0000
  O   O32       1.0  0.58380  0.73654  0.28102  1.0000
  O   O33       1.0  0.91714  0.73658  0.28108  1.0000
  O   O34       1.0  0.08379  0.82948  0.43140  1.0000
  O   O35       1.0  0.41716  0.82938  0.43135  1.0000
  O   O36       1.0  0.75046  0.82936  0.43135  1.0000
  O   O37       1.0  0.25047  0.67155  0.93140  1.0000
  O   O38       1.0  0.58380  0.67146  0.93133  1.0000
  O   O39       1.0  0.91717  0.67162  0.93132  1.0000
  O   O40       1.0  0.25046  0.89936  0.07565  1.0000
  O   O41       1.0  0.58386  0.89935  0.07553  1.0000
  O   O42       1.0  0.91715  0.89929  0.07552  1.0000
  O   O43       1.0  0.25050  0.39930  0.42536  1.0000
  O   O44       1.0  0.58385  0.39935  0.42545  1.0000
  O   O45       1.0  0.91715  0.39940  0.42547  1.0000
  O   O46       1.0  0.25046  0.17152  0.56947  1.0000
  O   O47       1.0  0.58379  0.17140  0.56951  1.0000
  O   O48       1.0  0.91712  0.17151  0.56950  1.0000
  O   O49       1.0  0.08374  0.19874  0.41777  1.0000
  O   O50       1.0  0.41714  0.19867  0.41774  1.0000
  O   O51       1.0  0.75045  0.19872  0.41781  1.0000
  O   O52       1.0  0.25049  0.01456  0.35078  1.0000
  O   O53       1.0  0.58384  0.01453  0.35077  1.0000
  O   O54       1.0  0.91707  0.01456  0.35071  1.0000
  O   O55       1.0  0.08383  0.10158  0.92543  1.0000
  O   O56       1.0  0.41711  0.10154  0.92540  1.0000
  O   O57       1.0  0.75042  0.10155  0.92537  1.0000
  O   O58       1.0  0.08386  0.76442  0.78112  1.0000
  O   O59       1.0  0.41712  0.76439  0.78106  1.0000
  O   O60       1.0  0.75046  0.76435  0.78103  1.0000
