data_image0
_chemical_formula_structural       Rb12Ti6Ge18O54
_chemical_formula_sum              "Rb12 Ti6 Ge18 O54"
_cell_length_a       12.2712
_cell_length_b       12.271
_cell_length_c       10.1676
_cell_angle_alpha    90.0025
_cell_angle_beta     90.003
_cell_angle_gamma    119.998

_space_group_name_H-M_alt    "P 1"
_space_group_IT_number       1

loop_
  _space_group_symop_operation_xyz
  'x, y, z'

loop_
  _atom_site_type_symbol
  _atom_site_label
  _atom_site_symmetry_multiplicity
  _atom_site_fract_x
  _atom_site_fract_y
  _atom_site_fract_z
  _atom_site_occupancy
  Rb  Rb1       1.0  0.33817  0.33627  0.42981  1.0000
  Rb  Rb2       1.0  0.66330  0.99872  0.07119  1.0000
  Rb  Rb3       1.0  0.33644  0.99876  0.57118  1.0000
  Rb  Rb4       1.0  0.00247  0.33796  0.57122  1.0000
  Rb  Rb5       1.0  0.00251  0.66488  0.07122  1.0000
  Rb  Rb6       1.0  0.33814  0.00222  0.92974  1.0000
  Rb  Rb7       1.0  0.66509  0.66313  0.92984  1.0000
  Rb  Rb8       1.0  0.33647  0.33799  0.07118  1.0000
  Rb  Rb9       1.0  0.99896  0.66309  0.42988  1.0000
  Rb  Rb10      1.0  0.66330  0.66488  0.57124  1.0000
  Rb  Rb11      1.0  0.99904  0.33625  0.92982  1.0000
  Rb  Rb12      1.0  0.66507  0.00229  0.42983  1.0000
  Ti  Ti1       1.0  0.66736  0.33383  0.46866  1.0000
  Ti  Ti2       1.0  0.33400  0.66719  0.53249  1.0000
  Ti  Ti3       1.0  0.33401  0.66713  0.03253  1.0000
  Ti  Ti4       1.0  0.66732  0.33380  0.96862  1.0000
  Ti  Ti5       1.0  0.00075  0.00056  0.50031  1.0000
  Ti  Ti6       1.0  0.00075  0.00054  0.00030  1.0000
  Ge  Ge1       1.0  0.48038  0.14792  0.21981  1.0000
  Ge  Ge2       1.0  0.33285  0.85294  0.28121  1.0000
  Ge  Ge3       1.0  0.82219  0.82201  0.25037  1.0000
  Ge  Ge4       1.0  0.66832  0.14787  0.71988  1.0000
  Ge  Ge5       1.0  0.52093  0.66825  0.28129  1.0000
  Ge  Ge6       1.0  0.33286  0.48020  0.78118  1.0000
  Ge  Ge7       1.0  0.66837  0.52074  0.21987  1.0000
  Ge  Ge8       1.0  0.85306  0.52067  0.71985  1.0000
  Ge  Ge9       1.0  0.82217  0.00046  0.75039  1.0000
  Ge  Ge10      1.0  0.85307  0.33269  0.21984  1.0000
  Ge  Ge11      1.0  0.52088  0.85290  0.78129  1.0000
  Ge  Ge12      1.0  0.00066  0.82201  0.75033  1.0000
  Ge  Ge13      1.0  0.14802  0.66817  0.78125  1.0000
  Ge  Ge14      1.0  0.17923  0.17902  0.75036  1.0000
  Ge  Ge15      1.0  0.48043  0.33278  0.71982  1.0000
  Ge  Ge16      1.0  0.00066  0.17898  0.25033  1.0000
  Ge  Ge17      1.0  0.17922  0.00056  0.25032  1.0000
  Ge  Ge18      1.0  0.14803  0.48014  0.28118  1.0000
  O   O1        1.0  0.21176  0.32492  0.82499  1.0000
  O   O2        1.0  0.51680  0.24307  0.35645  1.0000
  O   O3        1.0  0.43101  0.81336  0.92297  1.0000
  O   O4        1.0  0.43099  0.61797  0.42296  1.0000
  O   O5        1.0  0.24322  0.51659  0.14458  1.0000
  O   O6        1.0  0.47058  0.47045  0.75050  1.0000
  O   O7        1.0  0.81353  0.43069  0.57820  1.0000
  O   O8        1.0  0.72719  0.48442  0.35651  1.0000
  O   O9        1.0  0.14978  0.07172  0.38338  1.0000
  O   O10       1.0  0.72713  0.24304  0.85653  1.0000
  O   O11       1.0  0.18784  0.57024  0.42283  1.0000
  O   O12       1.0  0.67624  0.88709  0.82496  1.0000
  O   O13       1.0  0.75811  0.27395  0.35658  1.0000
  O   O14       1.0  0.51677  0.27401  0.85649  1.0000
  O   O15       1.0  0.07189  0.14957  0.11735  1.0000
  O   O16       1.0  0.07859  0.92937  0.11732  1.0000
  O   O17       1.0  0.78955  0.11387  0.67597  1.0000
  O   O18       1.0  0.61800  0.18765  0.57830  1.0000
  O   O19       1.0  0.85174  0.92267  0.11736  1.0000
  O   O20       1.0  0.32521  0.21160  0.67588  1.0000
  O   O21       1.0  0.75808  0.48446  0.85659  1.0000
  O   O22       1.0  0.00059  0.47043  0.25055  1.0000
  O   O23       1.0  0.27413  0.51652  0.64448  1.0000
  O   O24       1.0  0.00056  0.53047  0.75062  1.0000
  O   O25       1.0  0.32519  0.11393  0.17592  1.0000
  O   O26       1.0  0.07184  0.92262  0.61737  1.0000
  O   O27       1.0  0.07860  0.14954  0.61735  1.0000
  O   O28       1.0  0.67623  0.78944  0.32497  1.0000
  O   O29       1.0  0.47058  0.00043  0.25053  1.0000
  O   O30       1.0  0.24316  0.72690  0.64460  1.0000
  O   O31       1.0  0.38322  0.81331  0.42287  1.0000
  O   O32       1.0  0.11401  0.32493  0.32495  1.0000
  O   O33       1.0  0.21173  0.88714  0.32498  1.0000
  O   O34       1.0  0.92291  0.07169  0.88335  1.0000
  O   O35       1.0  0.48456  0.75788  0.64455  1.0000
  O   O36       1.0  0.53072  0.53057  0.25060  1.0000
  O   O37       1.0  0.27414  0.75791  0.14446  1.0000
  O   O38       1.0  0.11399  0.78939  0.82492  1.0000
  O   O39       1.0  0.48461  0.72699  0.14456  1.0000
  O   O40       1.0  0.18785  0.61792  0.92283  1.0000
  O   O41       1.0  0.81349  0.38311  0.07822  1.0000
  O   O42       1.0  0.38326  0.57028  0.92278  1.0000
  O   O43       1.0  0.14977  0.07842  0.88337  1.0000
  O   O44       1.0  0.92956  0.85154  0.88339  1.0000
  O   O45       1.0  0.88726  0.21157  0.17589  1.0000
  O   O46       1.0  0.61797  0.43063  0.07825  1.0000
  O   O47       1.0  0.88723  0.67597  0.67593  1.0000
  O   O48       1.0  0.78955  0.67597  0.17594  1.0000
  O   O49       1.0  0.85175  0.92940  0.61738  1.0000
  O   O50       1.0  0.53068  0.00040  0.75053  1.0000
  O   O51       1.0  0.57050  0.18762  0.07824  1.0000
  O   O52       1.0  0.57054  0.38323  0.57823  1.0000
  O   O53       1.0  0.92289  0.85154  0.38334  1.0000
  O   O54       1.0  0.92958  0.07839  0.38342  1.0000
