data_image0
_chemical_formula_structural       Sr16Ti20Si16O88
_chemical_formula_sum              "Sr16 Ti20 Si16 O88"
_cell_length_a       11.2951
_cell_length_b       13.9049
_cell_length_c       11.9098
_cell_angle_alpha    65.76
_cell_angle_beta     89.998
_cell_angle_gamma    89.9986

_space_group_name_H-M_alt    "P 1"
_space_group_IT_number       1

loop_
  _space_group_symop_operation_xyz
  'x, y, z'

loop_
  _atom_site_type_symbol
  _atom_site_label
  _atom_site_symmetry_multiplicity
  _atom_site_fract_x
  _atom_site_fract_y
  _atom_site_fract_z
  _atom_site_occupancy
  Sr  Sr1       1.0  0.00037  0.95386  0.74003  1.0000
  Sr  Sr2       1.0  0.50046  0.95387  0.74000  1.0000
  Sr  Sr3       1.0  0.25043  0.45384  0.74001  1.0000
  Sr  Sr4       1.0  0.75040  0.45387  0.74002  1.0000
  Sr  Sr5       1.0  0.00039  0.76466  0.26749  1.0000
  Sr  Sr6       1.0  0.50039  0.76465  0.26753  1.0000
  Sr  Sr7       1.0  0.25044  0.26464  0.26749  1.0000
  Sr  Sr8       1.0  0.75040  0.26465  0.26753  1.0000
  Sr  Sr9       1.0  0.00043  0.04649  0.26093  1.0000
  Sr  Sr10      1.0  0.50040  0.04651  0.26091  1.0000
  Sr  Sr11      1.0  0.25041  0.54646  0.26093  1.0000
  Sr  Sr12      1.0  0.75042  0.54651  0.26089  1.0000
  Sr  Sr13      1.0  0.00047  0.23574  0.73341  1.0000
  Sr  Sr14      1.0  0.50042  0.23571  0.73344  1.0000
  Sr  Sr15      1.0  0.25042  0.73573  0.73337  1.0000
  Sr  Sr16      1.0  0.75044  0.73576  0.73342  1.0000
  Ti  Ti1       1.0  0.87210  0.50013  0.00044  1.0000
  Ti  Ti2       1.0  0.37209  0.50020  0.00043  1.0000
  Ti  Ti3       1.0  0.12212  0.00013  0.00046  1.0000
  Ti  Ti4       1.0  0.62212  0.00015  0.00051  1.0000
  Ti  Ti5       1.0  0.00037  0.50019  0.50041  1.0000
  Ti  Ti6       1.0  0.50036  0.50020  0.50043  1.0000
  Ti  Ti7       1.0  0.25037  0.00025  0.50040  1.0000
  Ti  Ti8       1.0  0.75038  0.00021  0.50044  1.0000
  Ti  Ti9       1.0  0.00039  0.72842  0.00100  1.0000
  Ti  Ti10      1.0  0.50040  0.72846  0.00103  1.0000
  Ti  Ti11      1.0  0.25042  0.22843  0.00098  1.0000
  Ti  Ti12      1.0  0.75041  0.22847  0.00101  1.0000
  Ti  Ti13      1.0  0.12878  0.50020  0.00040  1.0000
  Ti  Ti14      1.0  0.62878  0.50022  0.00044  1.0000
  Ti  Ti15      1.0  0.37880  0.00014  0.00047  1.0000
  Ti  Ti16      1.0  0.87881  0.00023  0.00050  1.0000
  Ti  Ti17      1.0  0.00043  0.27187  0.99994  1.0000
  Ti  Ti18      1.0  0.50041  0.27194  0.99994  1.0000
  Ti  Ti19      1.0  0.25039  0.77187  0.99993  1.0000
  Ti  Ti20      1.0  0.75040  0.77191  0.99995  1.0000
  Si  Si1       1.0  0.00043  0.59423  0.73069  1.0000
  Si  Si2       1.0  0.50043  0.59426  0.73070  1.0000
  Si  Si3       1.0  0.25041  0.09422  0.73073  1.0000
  Si  Si4       1.0  0.75043  0.09423  0.73076  1.0000
  Si  Si5       1.0  0.00040  0.15770  0.45422  1.0000
  Si  Si6       1.0  0.50039  0.15769  0.45419  1.0000
  Si  Si7       1.0  0.25038  0.65767  0.45421  1.0000
  Si  Si8       1.0  0.75041  0.65767  0.45421  1.0000
  Si  Si9       1.0  0.00044  0.84269  0.54671  1.0000
  Si  Si10      1.0  0.50041  0.84272  0.54671  1.0000
  Si  Si11      1.0  0.25044  0.34267  0.54675  1.0000
  Si  Si12      1.0  0.75039  0.34269  0.54672  1.0000
  Si  Si13      1.0  0.00042  0.40614  0.27016  1.0000
  Si  Si14      1.0  0.50041  0.40614  0.27018  1.0000
  Si  Si15      1.0  0.25041  0.90611  0.27019  1.0000
  Si  Si16      1.0  0.75043  0.90612  0.27023  1.0000
  O   O1        1.0  0.11775  0.43692  0.18181  1.0000
  O   O2        1.0  0.61773  0.43691  0.18182  1.0000
  O   O3        1.0  0.36776  0.93691  0.18185  1.0000
  O   O4        1.0  0.86776  0.93694  0.18188  1.0000
  O   O5        1.0  0.13046  0.60564  0.41954  1.0000
  O   O6        1.0  0.63049  0.60563  0.41953  1.0000
  O   O7        1.0  0.38049  0.10564  0.41949  1.0000
  O   O8        1.0  0.88049  0.10564  0.41956  1.0000
  O   O9        1.0  0.13053  0.39476  0.58133  1.0000
  O   O10       1.0  0.63049  0.39476  0.58138  1.0000
  O   O11       1.0  0.38051  0.89482  0.58133  1.0000
  O   O12       1.0  0.88051  0.89476  0.58134  1.0000
  O   O13       1.0  0.87543  0.70823  0.11898  1.0000
  O   O14       1.0  0.37542  0.70820  0.11900  1.0000
  O   O15       1.0  0.12545  0.20823  0.11897  1.0000
  O   O16       1.0  0.62539  0.20824  0.11899  1.0000
  O   O17       1.0  0.00042  0.90643  0.00001  1.0000
  O   O18       1.0  0.50046  0.90638  0.00006  1.0000
  O   O19       1.0  0.25044  0.40645  0.99996  1.0000
  O   O20       1.0  0.75041  0.40641  0.99999  1.0000
  O   O21       1.0  0.00047  0.40471  0.00096  1.0000
  O   O22       1.0  0.50043  0.40478  0.00091  1.0000
  O   O23       1.0  0.25043  0.90469  0.00101  1.0000
  O   O24       1.0  0.75046  0.90474  0.00097  1.0000
  O   O25       1.0  0.00046  0.14711  0.59145  1.0000
  O   O26       1.0  0.50033  0.14711  0.59144  1.0000
  O   O27       1.0  0.25041  0.64712  0.59142  1.0000
  O   O28       1.0  0.75039  0.64709  0.59146  1.0000
  O   O29       1.0  0.00046  0.85327  0.40947  1.0000
  O   O30       1.0  0.50048  0.85329  0.40948  1.0000
  O   O31       1.0  0.25049  0.35321  0.40951  1.0000
  O   O32       1.0  0.75041  0.35329  0.40946  1.0000
  O   O33       1.0  0.11776  0.56345  0.81905  1.0000
  O   O34       1.0  0.61776  0.56345  0.81905  1.0000
  O   O35       1.0  0.36774  0.06339  0.81909  1.0000
  O   O36       1.0  0.86775  0.06349  0.81911  1.0000
  O   O37       1.0  0.00040  0.47040  0.35659  1.0000
  O   O38       1.0  0.50042  0.47039  0.35662  1.0000
  O   O39       1.0  0.25038  0.97037  0.35663  1.0000
  O   O40       1.0  0.75039  0.97039  0.35666  1.0000
  O   O41       1.0  0.88311  0.56344  0.81907  1.0000
  O   O42       1.0  0.38310  0.56347  0.81907  1.0000
  O   O43       1.0  0.13309  0.06342  0.81910  1.0000
  O   O44       1.0  0.63309  0.06343  0.81913  1.0000
  O   O45       1.0  0.00044  0.27878  0.34558  1.0000
  O   O46       1.0  0.50043  0.27876  0.34554  1.0000
  O   O47       1.0  0.25047  0.77875  0.34554  1.0000
  O   O48       1.0  0.75047  0.77876  0.34559  1.0000
  O   O49       1.0  0.12543  0.29213  0.88195  1.0000
  O   O50       1.0  0.62539  0.29214  0.88195  1.0000
  O   O51       1.0  0.37542  0.79214  0.88197  1.0000
  O   O52       1.0  0.87540  0.79213  0.88197  1.0000
  O   O53       1.0  0.00043  0.59560  0.99996  1.0000
  O   O54       1.0  0.50044  0.59565  0.99994  1.0000
  O   O55       1.0  0.25044  0.09560  0.99998  1.0000
  O   O56       1.0  0.75041  0.09561  0.00003  1.0000
  O   O57       1.0  0.87544  0.29213  0.88196  1.0000
  O   O58       1.0  0.37544  0.29213  0.88194  1.0000
  O   O59       1.0  0.12542  0.79212  0.88195  1.0000
  O   O60       1.0  0.62544  0.79213  0.88199  1.0000
  O   O61       1.0  0.00041  0.52997  0.64425  1.0000
  O   O62       1.0  0.50041  0.53002  0.64424  1.0000
  O   O63       1.0  0.25038  0.03002  0.64424  1.0000
  O   O64       1.0  0.75044  0.02995  0.64435  1.0000
  O   O65       1.0  0.00047  0.09394  0.00098  1.0000
  O   O66       1.0  0.50043  0.09389  0.00098  1.0000
  O   O67       1.0  0.25042  0.59395  0.00091  1.0000
  O   O68       1.0  0.75045  0.59392  0.00092  1.0000
  O   O69       1.0  0.12539  0.70820  0.11898  1.0000
  O   O70       1.0  0.62541  0.70822  0.11899  1.0000
  O   O71       1.0  0.37540  0.20824  0.11896  1.0000
  O   O72       1.0  0.87541  0.20824  0.11899  1.0000
  O   O73       1.0  0.87033  0.39473  0.58135  1.0000
  O   O74       1.0  0.37034  0.39475  0.58138  1.0000
  O   O75       1.0  0.12034  0.89475  0.58138  1.0000
  O   O76       1.0  0.62034  0.89476  0.58138  1.0000
  O   O77       1.0  0.00043  0.72160  0.65536  1.0000
  O   O78       1.0  0.50039  0.72164  0.65539  1.0000
  O   O79       1.0  0.25044  0.22161  0.65541  1.0000
  O   O80       1.0  0.75037  0.22161  0.65536  1.0000
  O   O81       1.0  0.87032  0.60560  0.41955  1.0000
  O   O82       1.0  0.37030  0.60559  0.41955  1.0000
  O   O83       1.0  0.12030  0.10562  0.41954  1.0000
  O   O84       1.0  0.62031  0.10560  0.41960  1.0000
  O   O85       1.0  0.88308  0.43688  0.18182  1.0000
  O   O86       1.0  0.38309  0.43694  0.18182  1.0000
  O   O87       1.0  0.13308  0.93690  0.18185  1.0000
  O   O88       1.0  0.63309  0.93690  0.18188  1.0000
