data_image0
_chemical_formula_structural       Ca32Ge16O64
_chemical_formula_sum              "Ca32 Ge16 O64"
_cell_length_a       10.5095
_cell_length_b       13.5823
_cell_length_c       11.4133
_cell_angle_alpha    90
_cell_angle_beta     90
_cell_angle_gamma    90

_space_group_name_H-M_alt    "P 1"
_space_group_IT_number       1

loop_
  _space_group_symop_operation_xyz
  'x, y, z'

loop_
  _atom_site_type_symbol
  _atom_site_label
  _atom_site_symmetry_multiplicity
  _atom_site_fract_x
  _atom_site_fract_y
  _atom_site_fract_z
  _atom_site_occupancy
  Ca  Ca1       1.0  0.00442  0.37531  0.72097  1.0000
  Ca  Ca2       1.0  0.00459  0.87543  0.72096  1.0000
  Ca  Ca3       1.0  0.50439  0.37546  0.72087  1.0000
  Ca  Ca4       1.0  0.50449  0.87535  0.72084  1.0000
  Ca  Ca5       1.0  0.49645  0.12551  0.28001  1.0000
  Ca  Ca6       1.0  0.49654  0.62531  0.28008  1.0000
  Ca  Ca7       1.0  0.99669  0.12543  0.28004  1.0000
  Ca  Ca8       1.0  0.99662  0.62532  0.28006  1.0000
  Ca  Ca9       1.0  0.25442  0.12535  0.77998  1.0000
  Ca  Ca10      1.0  0.25448  0.62539  0.77990  1.0000
  Ca  Ca11      1.0  0.75455  0.12557  0.78001  1.0000
  Ca  Ca12      1.0  0.75471  0.62542  0.78002  1.0000
  Ca  Ca13      1.0  0.24637  0.37539  0.22094  1.0000
  Ca  Ca14      1.0  0.24682  0.87528  0.22085  1.0000
  Ca  Ca15      1.0  0.74647  0.37536  0.22091  1.0000
  Ca  Ca16      1.0  0.74662  0.87543  0.22094  1.0000
  Ca  Ca17      1.0  0.25042  0.25044  0.50061  1.0000
  Ca  Ca18      1.0  0.25062  0.75040  0.50046  1.0000
  Ca  Ca19      1.0  0.75040  0.25034  0.50040  1.0000
  Ca  Ca20      1.0  0.75057  0.75021  0.50037  1.0000
  Ca  Ca21      1.0  0.00043  0.00034  0.00072  1.0000
  Ca  Ca22      1.0  0.00039  0.50037  0.00040  1.0000
  Ca  Ca23      1.0  0.50062  0.00036  0.00038  1.0000
  Ca  Ca24      1.0  0.50046  0.50037  0.00033  1.0000
  Ca  Ca25      1.0  0.00048  0.25027  0.00046  1.0000
  Ca  Ca26      1.0  0.00053  0.75029  0.00058  1.0000
  Ca  Ca27      1.0  0.50041  0.25039  0.00035  1.0000
  Ca  Ca28      1.0  0.50058  0.75029  0.00033  1.0000
  Ca  Ca29      1.0  0.25052  0.00039  0.50040  1.0000
  Ca  Ca30      1.0  0.25052  0.50030  0.50057  1.0000
  Ca  Ca31      1.0  0.75040  0.00029  0.50063  1.0000
  Ca  Ca32      1.0  0.75045  0.50022  0.50059  1.0000
  Ge  Ge1       1.0  0.21601  0.12531  0.09651  1.0000
  Ge  Ge2       1.0  0.21604  0.62529  0.09653  1.0000
  Ge  Ge3       1.0  0.71585  0.12536  0.09673  1.0000
  Ge  Ge4       1.0  0.71588  0.62541  0.09674  1.0000
  Ge  Ge5       1.0  0.46588  0.37542  0.40423  1.0000
  Ge  Ge6       1.0  0.46606  0.87539  0.40426  1.0000
  Ge  Ge7       1.0  0.96581  0.37530  0.40424  1.0000
  Ge  Ge8       1.0  0.96602  0.87539  0.40424  1.0000
  Ge  Ge9       1.0  0.28489  0.37538  0.90420  1.0000
  Ge  Ge10      1.0  0.28504  0.87532  0.90422  1.0000
  Ge  Ge11      1.0  0.78502  0.37533  0.90427  1.0000
  Ge  Ge12      1.0  0.78517  0.87536  0.90425  1.0000
  Ge  Ge13      1.0  0.03493  0.12541  0.59661  1.0000
  Ge  Ge14      1.0  0.03513  0.62527  0.59669  1.0000
  Ge  Ge15      1.0  0.53503  0.12536  0.59665  1.0000
  Ge  Ge16      1.0  0.53516  0.62526  0.59668  1.0000
  O   O1        1.0  0.39439  0.37541  0.54671  1.0000
  O   O2        1.0  0.39449  0.87530  0.54672  1.0000
  O   O3        1.0  0.89438  0.37529  0.54675  1.0000
  O   O4        1.0  0.89452  0.87529  0.54673  1.0000
  O   O5        1.0  0.39222  0.27214  0.33681  1.0000
  O   O6        1.0  0.39247  0.77211  0.33668  1.0000
  O   O7        1.0  0.89213  0.27202  0.33674  1.0000
  O   O8        1.0  0.89257  0.77205  0.33669  1.0000
  O   O9        1.0  0.35839  0.27203  0.83672  1.0000
  O   O10       1.0  0.35854  0.77209  0.83647  1.0000
  O   O11       1.0  0.85870  0.27202  0.83687  1.0000
  O   O12       1.0  0.85879  0.77208  0.83670  1.0000
  O   O13       1.0  0.36845  0.12541  0.59319  1.0000
  O   O14       1.0  0.36858  0.62526  0.59322  1.0000
  O   O15       1.0  0.86835  0.12541  0.59325  1.0000
  O   O16       1.0  0.86855  0.62525  0.59314  1.0000
  O   O17       1.0  0.35649  0.37545  0.04663  1.0000
  O   O18       1.0  0.35672  0.87519  0.04662  1.0000
  O   O19       1.0  0.85659  0.37537  0.04670  1.0000
  O   O20       1.0  0.85656  0.87532  0.04681  1.0000
  O   O21       1.0  0.14251  0.22862  0.16409  1.0000
  O   O22       1.0  0.14244  0.72857  0.16410  1.0000
  O   O23       1.0  0.64223  0.22870  0.16411  1.0000
  O   O24       1.0  0.64227  0.72875  0.16421  1.0000
  O   O25       1.0  0.10851  0.22867  0.66427  1.0000
  O   O26       1.0  0.10862  0.72862  0.66416  1.0000
  O   O27       1.0  0.60852  0.22878  0.66403  1.0000
  O   O28       1.0  0.60871  0.72859  0.66416  1.0000
  O   O29       1.0  0.13237  0.37531  0.40760  1.0000
  O   O30       1.0  0.13261  0.87546  0.40760  1.0000
  O   O31       1.0  0.63244  0.37529  0.40765  1.0000
  O   O32       1.0  0.63259  0.87533  0.40764  1.0000
  O   O33       1.0  0.39231  0.47873  0.33679  1.0000
  O   O34       1.0  0.39255  0.97877  0.33685  1.0000
  O   O35       1.0  0.89231  0.47868  0.33677  1.0000
  O   O36       1.0  0.89237  0.97872  0.33684  1.0000
  O   O37       1.0  0.11831  0.37536  0.90785  1.0000
  O   O38       1.0  0.11847  0.87537  0.90784  1.0000
  O   O39       1.0  0.61845  0.37532  0.90766  1.0000
  O   O40       1.0  0.61858  0.87534  0.90762  1.0000
  O   O41       1.0  0.10655  0.12556  0.45419  1.0000
  O   O42       1.0  0.10674  0.62527  0.45427  1.0000
  O   O43       1.0  0.60658  0.12535  0.45418  1.0000
  O   O44       1.0  0.60670  0.62525  0.45417  1.0000
  O   O45       1.0  0.35848  0.47862  0.83649  1.0000
  O   O46       1.0  0.35858  0.97868  0.83675  1.0000
  O   O47       1.0  0.85860  0.47863  0.83671  1.0000
  O   O48       1.0  0.85862  0.97877  0.83681  1.0000
  O   O49       1.0  0.10848  0.02206  0.66403  1.0000
  O   O50       1.0  0.10867  0.52196  0.66428  1.0000
  O   O51       1.0  0.60855  0.02209  0.66425  1.0000
  O   O52       1.0  0.60879  0.52201  0.66429  1.0000
  O   O53       1.0  0.14429  0.12529  0.95410  1.0000
  O   O54       1.0  0.14442  0.62533  0.95411  1.0000
  O   O55       1.0  0.64447  0.12538  0.95421  1.0000
  O   O56       1.0  0.64448  0.62544  0.95420  1.0000
  O   O57       1.0  0.14268  0.02197  0.16418  1.0000
  O   O58       1.0  0.14242  0.52199  0.16407  1.0000
  O   O59       1.0  0.64221  0.02207  0.16419  1.0000
  O   O60       1.0  0.64218  0.52207  0.16410  1.0000
  O   O61       1.0  0.38254  0.12535  0.09289  1.0000
  O   O62       1.0  0.38261  0.62537  0.09307  1.0000
  O   O63       1.0  0.88242  0.12527  0.09348  1.0000
  O   O64       1.0  0.88247  0.62538  0.09336  1.0000
