data_image0
_chemical_formula_structural       K16Si24Sn8O72
_chemical_formula_sum              "K16 Si24 Sn8 O72"
_cell_length_a       11.4743
_cell_length_b       10.1914
_cell_length_c       15.3466
_cell_angle_alpha    89.9983
_cell_angle_beta     80.9214
_cell_angle_gamma    90.0019

_space_group_name_H-M_alt    "P 1"
_space_group_IT_number       1

loop_
  _space_group_symop_operation_xyz
  'x, y, z'

loop_
  _atom_site_type_symbol
  _atom_site_label
  _atom_site_symmetry_multiplicity
  _atom_site_fract_x
  _atom_site_fract_y
  _atom_site_fract_z
  _atom_site_occupancy
  K   K1        1.0  0.11670  0.10781  0.38780  1.0000
  K   K2        1.0  0.11671  0.10789  0.88775  1.0000
  K   K3        1.0  0.61670  0.60784  0.38777  1.0000
  K   K4        1.0  0.61672  0.60792  0.88779  1.0000
  K   K5        1.0  0.50234  0.00048  0.25132  1.0000
  K   K6        1.0  0.50234  0.00047  0.75130  1.0000
  K   K7        1.0  0.00233  0.50051  0.25130  1.0000
  K   K8        1.0  0.00234  0.50049  0.75134  1.0000
  K   K9        1.0  0.39232  0.61750  0.11223  1.0000
  K   K10       1.0  0.39232  0.61754  0.61221  1.0000
  K   K11       1.0  0.89232  0.11758  0.11223  1.0000
  K   K12       1.0  0.89230  0.11755  0.61223  1.0000
  K   K13       1.0  0.49968  0.27606  0.00486  1.0000
  K   K14       1.0  0.49969  0.27606  0.50483  1.0000
  K   K15       1.0  0.99973  0.77617  0.00485  1.0000
  K   K16       1.0  0.99967  0.77608  0.50482  1.0000
  Si  Si1       1.0  0.71742  0.26300  0.27654  1.0000
  Si  Si2       1.0  0.71742  0.26295  0.77651  1.0000
  Si  Si3       1.0  0.21738  0.76299  0.27652  1.0000
  Si  Si4       1.0  0.21743  0.76296  0.77652  1.0000
  Si  Si5       1.0  0.50386  0.95154  0.49009  1.0000
  Si  Si6       1.0  0.50385  0.95157  0.99007  1.0000
  Si  Si7       1.0  0.00386  0.45157  0.49008  1.0000
  Si  Si8       1.0  0.00387  0.45156  0.99008  1.0000
  Si  Si9       1.0  0.29657  0.81020  0.44882  1.0000
  Si  Si10      1.0  0.29658  0.81022  0.94883  1.0000
  Si  Si11      1.0  0.79657  0.31019  0.44885  1.0000
  Si  Si12      1.0  0.79655  0.31018  0.94883  1.0000
  Si  Si13      1.0  0.50186  0.39607  0.24351  1.0000
  Si  Si14      1.0  0.50186  0.39607  0.74353  1.0000
  Si  Si15      1.0  0.00183  0.89606  0.24352  1.0000
  Si  Si16      1.0  0.00186  0.89603  0.74355  1.0000
  Si  Si17      1.0  0.76635  0.78689  0.22758  1.0000
  Si  Si18      1.0  0.76633  0.78692  0.72758  1.0000
  Si  Si19      1.0  0.26637  0.28690  0.22757  1.0000
  Si  Si20      1.0  0.26636  0.28689  0.72760  1.0000
  Si  Si21      1.0  0.69211  0.79517  0.05326  1.0000
  Si  Si22      1.0  0.69212  0.79518  0.55327  1.0000
  Si  Si23      1.0  0.19206  0.29519  0.05327  1.0000
  Si  Si24      1.0  0.19211  0.29517  0.55327  1.0000
  Sn  Sn1       1.0  0.25606  0.00049  0.12812  1.0000
  Sn  Sn2       1.0  0.25605  0.00044  0.62812  1.0000
  Sn  Sn3       1.0  0.75609  0.50047  0.12815  1.0000
  Sn  Sn4       1.0  0.75607  0.50046  0.62812  1.0000
  Sn  Sn5       1.0  0.77564  0.00047  0.38795  1.0000
  Sn  Sn6       1.0  0.77565  0.00046  0.88794  1.0000
  Sn  Sn7       1.0  0.27565  0.50047  0.38796  1.0000
  Sn  Sn8       1.0  0.27568  0.50045  0.88796  1.0000
  O   O1        1.0  0.78816  0.89304  0.49904  1.0000
  O   O2        1.0  0.78816  0.89306  0.99905  1.0000
  O   O3        1.0  0.28818  0.39299  0.49900  1.0000
  O   O4        1.0  0.28813  0.39304  0.99905  1.0000
  O   O5        1.0  0.60282  0.04700  0.43764  1.0000
  O   O6        1.0  0.60279  0.04700  0.93759  1.0000
  O   O7        1.0  0.10281  0.54700  0.43761  1.0000
  O   O8        1.0  0.10282  0.54699  0.93762  1.0000
  O   O9        1.0  0.22452  0.14221  0.03990  1.0000
  O   O10       1.0  0.22451  0.14216  0.53993  1.0000
  O   O11       1.0  0.72454  0.64215  0.03992  1.0000
  O   O12       1.0  0.72451  0.64217  0.53995  1.0000
  O   O13       1.0  0.28091  0.12944  0.22703  1.0000
  O   O14       1.0  0.28082  0.12942  0.72705  1.0000
  O   O15       1.0  0.78087  0.62942  0.22705  1.0000
  O   O16       1.0  0.78086  0.62945  0.72704  1.0000
  O   O17       1.0  0.41398  0.90381  0.42254  1.0000
  O   O18       1.0  0.41391  0.90391  0.92256  1.0000
  O   O19       1.0  0.91393  0.40385  0.42256  1.0000
  O   O20       1.0  0.91394  0.40383  0.92257  1.0000
  O   O21       1.0  0.71565  0.84114  0.32476  1.0000
  O   O22       1.0  0.71562  0.84113  0.82478  1.0000
  O   O23       1.0  0.21561  0.34114  0.32476  1.0000
  O   O24       1.0  0.21562  0.34113  0.82479  1.0000
  O   O25       1.0  0.94670  0.94940  0.34047  1.0000
  O   O26       1.0  0.94671  0.94937  0.84050  1.0000
  O   O27       1.0  0.44673  0.44943  0.34046  1.0000
  O   O28       1.0  0.44673  0.44936  0.84049  1.0000
  O   O29       1.0  0.08124  0.00207  0.18322  1.0000
  O   O30       1.0  0.08122  0.00208  0.68326  1.0000
  O   O31       1.0  0.58127  0.50207  0.18321  1.0000
  O   O32       1.0  0.58124  0.50208  0.68321  1.0000
  O   O33       1.0  0.22293  0.85717  0.04153  1.0000
  O   O34       1.0  0.22292  0.85717  0.54152  1.0000
  O   O35       1.0  0.72294  0.35710  0.04156  1.0000
  O   O36       1.0  0.72294  0.35712  0.54157  1.0000
  O   O37       1.0  0.83928  0.15901  0.44796  1.0000
  O   O38       1.0  0.83928  0.15899  0.94791  1.0000
  O   O39       1.0  0.33929  0.65901  0.44791  1.0000
  O   O40       1.0  0.33933  0.65906  0.94791  1.0000
  O   O41       1.0  0.56308  0.81531  0.02156  1.0000
  O   O42       1.0  0.56308  0.81529  0.52159  1.0000
  O   O43       1.0  0.06305  0.31531  0.02159  1.0000
  O   O44       1.0  0.06310  0.31532  0.52155  1.0000
  O   O45       1.0  0.43186  0.02251  0.07607  1.0000
  O   O46       1.0  0.43182  0.02247  0.57607  1.0000
  O   O47       1.0  0.93187  0.52252  0.07607  1.0000
  O   O48       1.0  0.93187  0.52251  0.57608  1.0000
  O   O49       1.0  0.76214  0.11333  0.27829  1.0000
  O   O50       1.0  0.76213  0.11328  0.77826  1.0000
  O   O51       1.0  0.26210  0.61332  0.27828  1.0000
  O   O52       1.0  0.26215  0.61330  0.77829  1.0000
  O   O53       1.0  0.39559  0.35317  0.18908  1.0000
  O   O54       1.0  0.39557  0.35318  0.68911  1.0000
  O   O55       1.0  0.89556  0.85320  0.18906  1.0000
  O   O56       1.0  0.89556  0.85319  0.68910  1.0000
  O   O57       1.0  0.30284  0.84954  0.20505  1.0000
  O   O58       1.0  0.30286  0.84945  0.70501  1.0000
  O   O59       1.0  0.80288  0.34956  0.20508  1.0000
  O   O60       1.0  0.80290  0.34951  0.70506  1.0000
  O   O61       1.0  0.58108  0.26429  0.25541  1.0000
  O   O62       1.0  0.58108  0.26428  0.75541  1.0000
  O   O63       1.0  0.08102  0.76426  0.25544  1.0000
  O   O64       1.0  0.08108  0.76424  0.75541  1.0000
  O   O65       1.0  0.67769  0.83330  0.15879  1.0000
  O   O66       1.0  0.67770  0.83339  0.65877  1.0000
  O   O67       1.0  0.17768  0.33330  0.15879  1.0000
  O   O68       1.0  0.17774  0.33334  0.65877  1.0000
  O   O69       1.0  0.21037  0.83295  0.37428  1.0000
  O   O70       1.0  0.21046  0.83297  0.87425  1.0000
  O   O71       1.0  0.71041  0.33296  0.37429  1.0000
  O   O72       1.0  0.71041  0.33295  0.87425  1.0000
