data_image0
_chemical_formula_structural       K12Ti6Ge18O54
_chemical_formula_sum              "K12 Ti6 Ge18 O54"
_cell_length_a       11.9665
_cell_length_b       11.9695
_cell_length_c       10.3483
_cell_angle_alpha    90.0041
_cell_angle_beta     89.9977
_cell_angle_gamma    120.007

_space_group_name_H-M_alt    "P 1"
_space_group_IT_number       1

loop_
  _space_group_symop_operation_xyz
  'x, y, z'

loop_
  _atom_site_type_symbol
  _atom_site_label
  _atom_site_symmetry_multiplicity
  _atom_site_fract_x
  _atom_site_fract_y
  _atom_site_fract_z
  _atom_site_occupancy
  K   K1        1.0  0.99758  0.68703  0.75480  1.0000
  K   K2        1.0  0.69024  0.00344  0.75486  1.0000
  K   K3        1.0  0.40853  0.41008  0.20686  1.0000
  K   K4        1.0  0.69019  0.68701  0.25493  1.0000
  K   K5        1.0  0.59097  0.59236  0.70705  1.0000
  K   K6        1.0  0.31391  0.31100  0.75465  1.0000
  K   K7        1.0  0.00228  0.41027  0.70702  1.0000
  K   K8        1.0  0.59094  0.99875  0.20703  1.0000
  K   K9        1.0  0.31391  0.00330  0.25465  1.0000
  K   K10       1.0  0.99769  0.31105  0.25487  1.0000
  K   K11       1.0  0.40825  0.99856  0.70696  1.0000
  K   K12       1.0  0.00240  0.59257  0.20687  1.0000
  Ti  Ti1       1.0  0.66702  0.33356  0.74542  1.0000
  Ti  Ti2       1.0  0.00062  0.00052  0.27810  1.0000
  Ti  Ti3       1.0  0.33423  0.66730  0.73389  1.0000
  Ti  Ti4       1.0  0.33414  0.66717  0.23389  1.0000
  Ti  Ti5       1.0  0.00073  0.00062  0.77806  1.0000
  Ti  Ti6       1.0  0.66717  0.33376  0.24540  1.0000
  Ge  Ge1       1.0  0.00127  0.18675  0.52996  1.0000
  Ge  Ge2       1.0  0.55064  0.83522  0.48522  1.0000
  Ge  Ge3       1.0  0.16597  0.71530  0.48522  1.0000
  Ge  Ge4       1.0  0.16608  0.45089  0.98517  1.0000
  Ge  Ge5       1.0  0.83081  0.28252  0.00222  1.0000
  Ge  Ge6       1.0  0.83072  0.54853  0.50218  1.0000
  Ge  Ge7       1.0  0.45218  0.28227  0.50205  1.0000
  Ge  Ge8       1.0  0.28578  0.83515  0.98526  1.0000
  Ge  Ge9       1.0  0.00118  0.81495  0.02981  1.0000
  Ge  Ge10      1.0  0.55077  0.71593  0.98515  1.0000
  Ge  Ge11      1.0  0.81498  0.00036  0.03014  1.0000
  Ge  Ge12      1.0  0.18597  0.18637  0.02987  1.0000
  Ge  Ge13      1.0  0.81478  0.81494  0.53010  1.0000
  Ge  Ge14      1.0  0.28587  0.45102  0.48518  1.0000
  Ge  Ge15      1.0  0.71848  0.17015  0.50217  1.0000
  Ge  Ge16      1.0  0.71851  0.54860  0.00211  1.0000
  Ge  Ge17      1.0  0.18591  0.99979  0.52975  1.0000
  Ge  Ge18      1.0  0.45219  0.17012  0.00212  1.0000
  O   O1        1.0  0.06755  0.91471  0.16197  1.0000
  O   O2        1.0  0.18905  0.64892  0.62371  1.0000
  O   O3        1.0  0.21298  0.52692  0.83757  1.0000
  O   O4        1.0  0.31527  0.52695  0.33752  1.0000
  O   O5        1.0  0.55748  0.18740  0.12741  1.0000
  O   O6        1.0  0.14943  0.04730  0.38547  1.0000
  O   O7        1.0  0.47435  0.78830  0.33774  1.0000
  O   O8        1.0  0.31517  0.78836  0.83775  1.0000
  O   O9        1.0  0.08606  0.93338  0.66181  1.0000
  O   O10       1.0  0.86638  0.66347  0.07580  1.0000
  O   O11       1.0  0.47456  0.68651  0.83757  1.0000
  O   O12       1.0  0.73450  0.48976  0.85362  1.0000
  O   O13       1.0  0.33731  0.20291  0.07608  1.0000
  O   O14       1.0  0.46087  0.64919  0.12343  1.0000
  O   O15       1.0  0.99695  0.64291  0.46572  1.0000
  O   O16       1.0  0.35744  0.35374  0.46587  1.0000
  O   O17       1.0  0.81361  0.37046  0.12767  1.0000
  O   O18       1.0  0.23798  0.88605  0.49339  1.0000
  O   O19       1.0  0.79826  0.66361  0.57619  1.0000
  O   O20       1.0  0.95399  0.85191  0.88563  1.0000
  O   O21       1.0  0.95404  0.10262  0.38573  1.0000
  O   O22       1.0  0.64905  0.88670  0.99358  1.0000
  O   O23       1.0  0.99704  0.35424  0.96572  1.0000
  O   O24       1.0  0.84783  0.91480  0.66214  1.0000
  O   O25       1.0  0.35224  0.81222  0.12374  1.0000
  O   O26       1.0  0.55732  0.37021  0.62749  1.0000
  O   O27       1.0  0.33736  0.13450  0.57593  1.0000
  O   O28       1.0  0.14959  0.10254  0.88550  1.0000
  O   O29       1.0  0.11497  0.35263  0.49361  1.0000
  O   O30       1.0  0.08597  0.15300  0.16179  1.0000
  O   O31       1.0  0.81339  0.44332  0.62755  1.0000
  O   O32       1.0  0.64729  0.64353  0.96574  1.0000
  O   O33       1.0  0.11495  0.76281  0.99360  1.0000
  O   O34       1.0  0.35256  0.54066  0.62348  1.0000
  O   O35       1.0  0.75564  0.26611  0.85384  1.0000
  O   O36       1.0  0.73450  0.24513  0.35374  1.0000
  O   O37       1.0  0.63044  0.18714  0.62759  1.0000
  O   O38       1.0  0.63052  0.44349  0.12751  1.0000
  O   O39       1.0  0.51088  0.26618  0.35348  1.0000
  O   O40       1.0  0.79827  0.13503  0.07630  1.0000
  O   O41       1.0  0.64737  0.00407  0.46568  1.0000
  O   O42       1.0  0.51084  0.24503  0.85361  1.0000
  O   O43       1.0  0.23822  0.35225  0.99354  1.0000
  O   O44       1.0  0.18914  0.54050  0.12357  1.0000
  O   O45       1.0  0.64884  0.76264  0.49376  1.0000
  O   O46       1.0  0.06757  0.15328  0.66208  1.0000
  O   O47       1.0  0.86635  0.20325  0.57585  1.0000
  O   O48       1.0  0.89897  0.04753  0.88588  1.0000
  O   O49       1.0  0.21277  0.68585  0.33773  1.0000
  O   O50       1.0  0.89881  0.85186  0.38580  1.0000
  O   O51       1.0  0.46083  0.81222  0.62351  1.0000
  O   O52       1.0  0.84780  0.93339  0.16218  1.0000
  O   O53       1.0  0.35764  0.00399  0.96585  1.0000
  O   O54       1.0  0.75563  0.48991  0.35372  1.0000
