data_image0
_chemical_formula_structural       Ca16Zr16Ge16O80
_chemical_formula_sum              "Ca16 Zr16 Ge16 O80"
_cell_length_a       11.1634
_cell_length_b       11.2651
_cell_length_c       13.846
_cell_angle_alpha    86.5788
_cell_angle_beta     86.5856
_cell_angle_gamma    79.2841

_space_group_name_H-M_alt    "P 1"
_space_group_IT_number       1

loop_
  _space_group_symop_operation_xyz
  'x, y, z'

loop_
  _atom_site_type_symbol
  _atom_site_label
  _atom_site_symmetry_multiplicity
  _atom_site_fract_x
  _atom_site_fract_y
  _atom_site_fract_z
  _atom_site_occupancy
  Ca  Ca1       1.0  0.35266  0.03980  0.10301  1.0000
  Ca  Ca2       1.0  0.85261  0.03978  0.10302  1.0000
  Ca  Ca3       1.0  0.60258  0.53976  0.10304  1.0000
  Ca  Ca4       1.0  0.47762  0.28974  0.60304  1.0000
  Ca  Ca5       1.0  0.10261  0.53980  0.10303  1.0000
  Ca  Ca6       1.0  0.97765  0.28978  0.60300  1.0000
  Ca  Ca7       1.0  0.72760  0.78979  0.60303  1.0000
  Ca  Ca8       1.0  0.22768  0.78976  0.60303  1.0000
  Ca  Ca9       1.0  0.77305  0.21122  0.39762  1.0000
  Ca  Ca10      1.0  0.27297  0.21112  0.39775  1.0000
  Ca  Ca11      1.0  0.02299  0.71121  0.39766  1.0000
  Ca  Ca12      1.0  0.89800  0.46117  0.89763  1.0000
  Ca  Ca13      1.0  0.52303  0.71118  0.39766  1.0000
  Ca  Ca14      1.0  0.39795  0.46118  0.89770  1.0000
  Ca  Ca15      1.0  0.14802  0.96115  0.89769  1.0000
  Ca  Ca16      1.0  0.64803  0.96112  0.89765  1.0000
  Zr  Zr1       1.0  0.06283  0.12541  0.25035  1.0000
  Zr  Zr2       1.0  0.56278  0.12546  0.25032  1.0000
  Zr  Zr3       1.0  0.31281  0.62543  0.25033  1.0000
  Zr  Zr4       1.0  0.18780  0.37550  0.75033  1.0000
  Zr  Zr5       1.0  0.81281  0.62547  0.25035  1.0000
  Zr  Zr6       1.0  0.68777  0.37544  0.75035  1.0000
  Zr  Zr7       1.0  0.43780  0.87543  0.75034  1.0000
  Zr  Zr8       1.0  0.93779  0.87550  0.75032  1.0000
  Zr  Zr9       1.0  0.12537  0.25047  0.00034  1.0000
  Zr  Zr10      1.0  0.62536  0.25044  0.00031  1.0000
  Zr  Zr11      1.0  0.37533  0.75047  0.00033  1.0000
  Zr  Zr12      1.0  0.25033  0.50045  0.50033  1.0000
  Zr  Zr13      1.0  0.87536  0.75046  0.00033  1.0000
  Zr  Zr14      1.0  0.75037  0.50046  0.50037  1.0000
  Zr  Zr15      1.0  0.50036  0.00045  0.50030  1.0000
  Zr  Zr16      1.0  0.00038  0.00048  0.50033  1.0000
  Ge  Ge1       1.0  0.27004  0.90025  0.37557  1.0000
  Ge  Ge2       1.0  0.77000  0.90033  0.37558  1.0000
  Ge  Ge3       1.0  0.52001  0.40025  0.37562  1.0000
  Ge  Ge4       1.0  0.39503  0.15028  0.87561  1.0000
  Ge  Ge5       1.0  0.02002  0.40027  0.37560  1.0000
  Ge  Ge6       1.0  0.89504  0.15026  0.87557  1.0000
  Ge  Ge7       1.0  0.64500  0.65024  0.87560  1.0000
  Ge  Ge8       1.0  0.14500  0.65029  0.87556  1.0000
  Ge  Ge9       1.0  0.85572  0.35070  0.12507  1.0000
  Ge  Ge10      1.0  0.35573  0.35072  0.12504  1.0000
  Ge  Ge11      1.0  0.10569  0.85072  0.12504  1.0000
  Ge  Ge12      1.0  0.98074  0.60072  0.62503  1.0000
  Ge  Ge13      1.0  0.60571  0.85068  0.12504  1.0000
  Ge  Ge14      1.0  0.48074  0.60065  0.62505  1.0000
  Ge  Ge15      1.0  0.23071  0.10070  0.62505  1.0000
  Ge  Ge16      1.0  0.73073  0.10069  0.62503  1.0000
  O   O1        1.0  0.96284  0.09775  0.37491  1.0000
  O   O2        1.0  0.46280  0.09767  0.37486  1.0000
  O   O3        1.0  0.21282  0.59771  0.37490  1.0000
  O   O4        1.0  0.08787  0.34772  0.87490  1.0000
  O   O5        1.0  0.71287  0.59773  0.37491  1.0000
  O   O6        1.0  0.58781  0.34774  0.87489  1.0000
  O   O7        1.0  0.33780  0.84773  0.87490  1.0000
  O   O8        1.0  0.83787  0.84773  0.87491  1.0000
  O   O9        1.0  0.16277  0.15319  0.12579  1.0000
  O   O10       1.0  0.66274  0.15320  0.12574  1.0000
  O   O11       1.0  0.41277  0.65320  0.12578  1.0000
  O   O12       1.0  0.28778  0.40316  0.62576  1.0000
  O   O13       1.0  0.91279  0.65325  0.12579  1.0000
  O   O14       1.0  0.78778  0.40319  0.62579  1.0000
  O   O15       1.0  0.53769  0.90326  0.62578  1.0000
  O   O16       1.0  0.03778  0.90318  0.62575  1.0000
  O   O17       1.0  0.86952  0.89202  0.47247  1.0000
  O   O18       1.0  0.36959  0.89190  0.47248  1.0000
  O   O19       1.0  0.11950  0.39196  0.47253  1.0000
  O   O20       1.0  0.99455  0.14196  0.97247  1.0000
  O   O21       1.0  0.61955  0.39196  0.47249  1.0000
  O   O22       1.0  0.49459  0.14195  0.97248  1.0000
  O   O23       1.0  0.24454  0.64195  0.97244  1.0000
  O   O24       1.0  0.74454  0.64192  0.97247  1.0000
  O   O25       1.0  0.25614  0.35900  0.02819  1.0000
  O   O26       1.0  0.75617  0.35896  0.02818  1.0000
  O   O27       1.0  0.50617  0.85896  0.02817  1.0000
  O   O28       1.0  0.38117  0.60896  0.52819  1.0000
  O   O29       1.0  0.00614  0.85899  0.02816  1.0000
  O   O30       1.0  0.88118  0.60899  0.52815  1.0000
  O   O31       1.0  0.63115  0.10900  0.52816  1.0000
  O   O32       1.0  0.13118  0.10895  0.52816  1.0000
  O   O33       1.0  0.09736  0.28661  0.30257  1.0000
  O   O34       1.0  0.59738  0.28664  0.30253  1.0000
  O   O35       1.0  0.34743  0.78663  0.30251  1.0000
  O   O36       1.0  0.22234  0.53669  0.80246  1.0000
  O   O37       1.0  0.84730  0.78666  0.30253  1.0000
  O   O38       1.0  0.72237  0.53660  0.80253  1.0000
  O   O39       1.0  0.47236  0.03663  0.80256  1.0000
  O   O40       1.0  0.97241  0.03665  0.80246  1.0000
  O   O41       1.0  0.02827  0.96424  0.19819  1.0000
  O   O42       1.0  0.52830  0.96427  0.19813  1.0000
  O   O43       1.0  0.27830  0.46429  0.19814  1.0000
  O   O44       1.0  0.15330  0.21424  0.69817  1.0000
  O   O45       1.0  0.77830  0.46425  0.19822  1.0000
  O   O46       1.0  0.65329  0.21421  0.69816  1.0000
  O   O47       1.0  0.40331  0.71419  0.69821  1.0000
  O   O48       1.0  0.90327  0.71427  0.69814  1.0000
  O   O49       1.0  0.89607  0.21097  0.18809  1.0000
  O   O50       1.0  0.39602  0.21103  0.18809  1.0000
  O   O51       1.0  0.14605  0.71100  0.18803  1.0000
  O   O52       1.0  0.02106  0.46103  0.68809  1.0000
  O   O53       1.0  0.64604  0.71098  0.18809  1.0000
  O   O54       1.0  0.52109  0.46093  0.68803  1.0000
  O   O55       1.0  0.27105  0.96098  0.68808  1.0000
  O   O56       1.0  0.77103  0.96099  0.68809  1.0000
  O   O57       1.0  0.22962  0.03993  0.31253  1.0000
  O   O58       1.0  0.72960  0.04002  0.31254  1.0000
  O   O59       1.0  0.47957  0.53993  0.31257  1.0000
  O   O60       1.0  0.35461  0.28994  0.81253  1.0000
  O   O61       1.0  0.97957  0.53995  0.31258  1.0000
  O   O62       1.0  0.85461  0.28995  0.81255  1.0000
  O   O63       1.0  0.60461  0.78991  0.81255  1.0000
  O   O64       1.0  0.10458  0.78995  0.81252  1.0000
  O   O65       1.0  0.98932  0.38719  0.06409  1.0000
  O   O66       1.0  0.48929  0.38718  0.06405  1.0000
  O   O67       1.0  0.23927  0.88719  0.06406  1.0000
  O   O68       1.0  0.11433  0.63720  0.56406  1.0000
  O   O69       1.0  0.73930  0.88711  0.06407  1.0000
  O   O70       1.0  0.61430  0.63717  0.56412  1.0000
  O   O71       1.0  0.36429  0.13716  0.56406  1.0000
  O   O72       1.0  0.86431  0.13716  0.56407  1.0000
  O   O73       1.0  0.13643  0.86378  0.43657  1.0000
  O   O74       1.0  0.63640  0.86384  0.43660  1.0000
  O   O75       1.0  0.38640  0.36377  0.43661  1.0000
  O   O76       1.0  0.26143  0.11380  0.93663  1.0000
  O   O77       1.0  0.88642  0.36380  0.43663  1.0000
  O   O78       1.0  0.76144  0.11377  0.93656  1.0000
  O   O79       1.0  0.51140  0.61377  0.93661  1.0000
  O   O80       1.0  0.01142  0.61382  0.93659  1.0000
