data_image0
_chemical_formula_structural       Li8Al8Si32O80
_chemical_formula_sum              "Li8 Al8 Si32 O80"
_cell_length_a       10.3076
_cell_length_b       15.3031
_cell_length_c       11.2957
_cell_angle_alpha    105.491
_cell_angle_beta     89.9965
_cell_angle_gamma    90.0005

_space_group_name_H-M_alt    "P 1"
_space_group_IT_number       1

loop_
  _space_group_symop_operation_xyz
  'x, y, z'

loop_
  _atom_site_type_symbol
  _atom_site_label
  _atom_site_symmetry_multiplicity
  _atom_site_fract_x
  _atom_site_fract_y
  _atom_site_fract_z
  _atom_site_occupancy
  Li  Li1       1.0  0.12774  0.62543  0.75044  1.0000
  Li  Li2       1.0  0.12779  0.12544  0.75043  1.0000
  Li  Li3       1.0  0.62776  0.62550  0.75048  1.0000
  Li  Li4       1.0  0.62776  0.12544  0.75046  1.0000
  Li  Li5       1.0  0.37316  0.37550  0.25041  1.0000
  Li  Li6       1.0  0.37311  0.87549  0.25056  1.0000
  Li  Li7       1.0  0.87314  0.37539  0.25039  1.0000
  Li  Li8       1.0  0.87310  0.87541  0.25035  1.0000
  Al  Al1       1.0  0.37790  0.62538  0.75036  1.0000
  Al  Al2       1.0  0.37799  0.12544  0.75044  1.0000
  Al  Al3       1.0  0.87794  0.62541  0.75043  1.0000
  Al  Al4       1.0  0.87792  0.12546  0.75050  1.0000
  Al  Al5       1.0  0.12298  0.37539  0.25042  1.0000
  Al  Al6       1.0  0.12293  0.87541  0.25046  1.0000
  Al  Al7       1.0  0.62294  0.37542  0.25041  1.0000
  Al  Al8       1.0  0.62298  0.87539  0.25051  1.0000
  Si  Si1       1.0  0.49423  0.57093  0.35293  1.0000
  Si  Si2       1.0  0.49415  0.07090  0.35293  1.0000
  Si  Si3       1.0  0.99415  0.57086  0.35283  1.0000
  Si  Si4       1.0  0.99410  0.07089  0.35292  1.0000
  Si  Si5       1.0  0.49409  0.17998  0.14803  1.0000
  Si  Si6       1.0  0.49414  0.67997  0.14802  1.0000
  Si  Si7       1.0  0.99408  0.17993  0.14802  1.0000
  Si  Si8       1.0  0.99416  0.67994  0.14801  1.0000
  Si  Si9       1.0  0.00672  0.42994  0.64795  1.0000
  Si  Si10      1.0  0.00681  0.93004  0.64810  1.0000
  Si  Si11      1.0  0.50677  0.42996  0.64797  1.0000
  Si  Si12      1.0  0.50684  0.92998  0.64797  1.0000
  Si  Si13      1.0  0.00668  0.82087  0.85282  1.0000
  Si  Si14      1.0  0.00679  0.32091  0.85283  1.0000
  Si  Si15      1.0  0.50663  0.82084  0.85275  1.0000
  Si  Si16      1.0  0.50681  0.32090  0.85286  1.0000
  Si  Si17      1.0  0.25807  0.39596  0.00286  1.0000
  Si  Si18      1.0  0.25793  0.89590  0.00290  1.0000
  Si  Si19      1.0  0.75806  0.39589  0.00285  1.0000
  Si  Si20      1.0  0.75785  0.89582  0.00278  1.0000
  Si  Si21      1.0  0.24293  0.60494  0.99801  1.0000
  Si  Si22      1.0  0.24291  0.10487  0.99802  1.0000
  Si  Si23      1.0  0.74294  0.60491  0.99805  1.0000
  Si  Si24      1.0  0.74281  0.10484  0.99801  1.0000
  Si  Si25      1.0  0.25802  0.35486  0.49796  1.0000
  Si  Si26      1.0  0.25805  0.85503  0.49811  1.0000
  Si  Si27      1.0  0.75805  0.35492  0.49793  1.0000
  Si  Si28      1.0  0.75817  0.85500  0.49810  1.0000
  Si  Si29      1.0  0.24290  0.64599  0.50287  1.0000
  Si  Si30      1.0  0.24288  0.14588  0.50286  1.0000
  Si  Si31      1.0  0.74299  0.64599  0.50292  1.0000
  Si  Si32      1.0  0.74288  0.14595  0.50293  1.0000
  O   O1        1.0  0.40204  0.39323  0.53917  1.0000
  O   O2        1.0  0.40218  0.89341  0.53903  1.0000
  O   O3        1.0  0.90204  0.39338  0.53907  1.0000
  O   O4        1.0  0.90221  0.89345  0.53915  1.0000
  O   O5        1.0  0.01220  0.46376  0.29314  1.0000
  O   O6        1.0  0.01215  0.96382  0.29291  1.0000
  O   O7        1.0  0.51227  0.46383  0.29319  1.0000
  O   O8        1.0  0.51228  0.96382  0.29312  1.0000
  O   O9        1.0  0.48865  0.71376  0.79295  1.0000
  O   O10       1.0  0.48873  0.21383  0.79291  1.0000
  O   O11       1.0  0.98875  0.71378  0.79296  1.0000
  O   O12       1.0  0.98879  0.21381  0.79306  1.0000
  O   O13       1.0  0.01218  0.28703  0.20762  1.0000
  O   O14       1.0  0.01216  0.78702  0.20788  1.0000
  O   O15       1.0  0.51214  0.28707  0.20774  1.0000
  O   O16       1.0  0.51215  0.78705  0.20789  1.0000
  O   O17       1.0  0.48874  0.53705  0.70767  1.0000
  O   O18       1.0  0.48877  0.03705  0.70792  1.0000
  O   O19       1.0  0.98876  0.53702  0.70780  1.0000
  O   O20       1.0  0.98875  0.03711  0.70792  1.0000
  O   O21       1.0  0.09888  0.60759  0.46164  1.0000
  O   O22       1.0  0.09881  0.10748  0.46183  1.0000
  O   O23       1.0  0.59893  0.60769  0.46175  1.0000
  O   O24       1.0  0.59880  0.10764  0.46181  1.0000
  O   O25       1.0  0.40192  0.85744  0.96163  1.0000
  O   O26       1.0  0.40209  0.35745  0.96176  1.0000
  O   O27       1.0  0.90186  0.85738  0.96162  1.0000
  O   O28       1.0  0.90213  0.35753  0.96174  1.0000
  O   O29       1.0  0.09878  0.14317  0.03914  1.0000
  O   O30       1.0  0.09886  0.64330  0.03913  1.0000
  O   O31       1.0  0.59878  0.14326  0.03918  1.0000
  O   O32       1.0  0.59887  0.64328  0.03918  1.0000
  O   O33       1.0  0.15213  0.41305  0.59274  1.0000
  O   O34       1.0  0.15225  0.91324  0.59300  1.0000
  O   O35       1.0  0.65213  0.41304  0.59272  1.0000
  O   O36       1.0  0.65225  0.91318  0.59282  1.0000
  O   O37       1.0  0.23359  0.38659  0.13948  1.0000
  O   O38       1.0  0.23362  0.88654  0.13954  1.0000
  O   O39       1.0  0.73358  0.38658  0.13949  1.0000
  O   O40       1.0  0.73352  0.88645  0.13943  1.0000
  O   O41       1.0  0.25044  0.25036  0.50036  1.0000
  O   O42       1.0  0.25042  0.75054  0.50065  1.0000
  O   O43       1.0  0.75062  0.25041  0.50035  1.0000
  O   O44       1.0  0.75070  0.75052  0.50061  1.0000
  O   O45       1.0  0.25054  0.00038  0.00040  1.0000
  O   O46       1.0  0.25065  0.50045  0.00043  1.0000
  O   O47       1.0  0.75032  0.00033  0.00039  1.0000
  O   O48       1.0  0.75056  0.50038  0.00037  1.0000
  O   O49       1.0  0.48648  0.37553  0.75054  1.0000
  O   O50       1.0  0.48632  0.87535  0.75027  1.0000
  O   O51       1.0  0.98630  0.37539  0.75035  1.0000
  O   O52       1.0  0.98639  0.87546  0.75045  1.0000
  O   O53       1.0  0.01436  0.12557  0.25066  1.0000
  O   O54       1.0  0.01450  0.62532  0.25032  1.0000
  O   O55       1.0  0.51439  0.12543  0.25046  1.0000
  O   O56       1.0  0.51450  0.62542  0.25043  1.0000
  O   O57       1.0  0.34870  0.16314  0.09283  1.0000
  O   O58       1.0  0.34875  0.66317  0.09280  1.0000
  O   O59       1.0  0.84872  0.16298  0.09280  1.0000
  O   O60       1.0  0.84877  0.66311  0.09285  1.0000
  O   O61       1.0  0.23365  0.36425  0.36132  1.0000
  O   O62       1.0  0.23354  0.86435  0.36145  1.0000
  O   O63       1.0  0.73361  0.36426  0.36129  1.0000
  O   O64       1.0  0.73371  0.86427  0.36141  1.0000
  O   O65       1.0  0.15199  0.83778  0.90816  1.0000
  O   O66       1.0  0.15221  0.33785  0.90796  1.0000
  O   O67       1.0  0.65197  0.83771  0.90798  1.0000
  O   O68       1.0  0.65221  0.33772  0.90804  1.0000
  O   O69       1.0  0.34885  0.58784  0.40814  1.0000
  O   O70       1.0  0.34873  0.08767  0.40808  1.0000
  O   O71       1.0  0.84884  0.58781  0.40814  1.0000
  O   O72       1.0  0.84871  0.08764  0.40818  1.0000
  O   O73       1.0  0.26727  0.61426  0.86134  1.0000
  O   O74       1.0  0.26730  0.11431  0.86140  1.0000
  O   O75       1.0  0.76730  0.61430  0.86140  1.0000
  O   O76       1.0  0.76730  0.11425  0.86140  1.0000
  O   O77       1.0  0.26718  0.63657  0.63951  1.0000
  O   O78       1.0  0.26733  0.13658  0.63952  1.0000
  O   O79       1.0  0.76726  0.63654  0.63953  1.0000
  O   O80       1.0  0.76729  0.13666  0.63960  1.0000
