data_image0
_chemical_formula_structural       Rb48Sn32Ge4O16
_chemical_formula_sum              "Rb48 Sn32 Ge4 O16"
_cell_length_a       23.6101
_cell_length_b       13.0464
_cell_length_c       13.2909
_cell_angle_alpha    61.5522
_cell_angle_beta     89.9983
_cell_angle_gamma    90.0055

_space_group_name_H-M_alt    "P 1"
_space_group_IT_number       1

loop_
  _space_group_symop_operation_xyz
  'x, y, z'

loop_
  _atom_site_type_symbol
  _atom_site_label
  _atom_site_symmetry_multiplicity
  _atom_site_fract_x
  _atom_site_fract_y
  _atom_site_fract_z
  _atom_site_occupancy
  Rb  Rb1       1.0  0.06965  0.40784  0.16778  1.0000
  Rb  Rb2       1.0  0.19595  0.66353  0.62105  1.0000
  Rb  Rb3       1.0  0.97633  0.28007  0.49925  1.0000
  Rb  Rb4       1.0  0.88715  0.06402  0.91881  1.0000
  Rb  Rb5       1.0  0.61576  0.87530  0.12141  1.0000
  Rb  Rb6       1.0  0.80450  0.33677  0.37975  1.0000
  Rb  Rb7       1.0  0.15477  0.23918  0.06547  1.0000
  Rb  Rb8       1.0  0.25079  0.82507  0.26503  1.0000
  Rb  Rb9       1.0  0.83426  0.97712  0.21542  1.0000
  Rb  Rb10      1.0  0.24972  0.32515  0.26508  1.0000
  Rb  Rb11      1.0  0.00227  0.04103  0.26655  1.0000
  Rb  Rb12      1.0  0.84550  0.76107  0.93521  1.0000
  Rb  Rb13      1.0  0.69603  0.83681  0.37978  1.0000
  Rb  Rb14      1.0  0.75077  0.67505  0.73593  1.0000
  Rb  Rb15      1.0  0.30263  0.12912  0.14418  1.0000
  Rb  Rb16      1.0  0.87637  0.60170  0.47823  1.0000
  Rb  Rb17      1.0  0.38462  0.12513  0.87944  1.0000
  Rb  Rb18      1.0  0.52419  0.77995  0.49929  1.0000
  Rb  Rb19      1.0  0.26986  0.79080  0.83155  1.0000
  Rb  Rb20      1.0  0.11321  0.93608  0.08194  1.0000
  Rb  Rb21      1.0  0.76991  0.70930  0.16927  1.0000
  Rb  Rb22      1.0  0.80269  0.37122  0.85659  1.0000
  Rb  Rb23      1.0  0.47632  0.22036  0.50150  1.0000
  Rb  Rb24      1.0  0.43077  0.90790  0.16775  1.0000
  Rb  Rb25      1.0  0.74970  0.17499  0.73591  1.0000
  Rb  Rb26      1.0  0.30456  0.16350  0.62114  1.0000
  Rb  Rb27      1.0  0.65479  0.26118  0.93508  1.0000
  Rb  Rb28      1.0  0.69769  0.87108  0.85672  1.0000
  Rb  Rb29      1.0  0.93076  0.59242  0.83311  1.0000
  Rb  Rb30      1.0  0.61322  0.56400  0.91890  1.0000
  Rb  Rb31      1.0  0.50221  0.45938  0.73437  1.0000
  Rb  Rb32      1.0  0.49822  0.54112  0.26668  1.0000
  Rb  Rb33      1.0  0.23058  0.29089  0.83160  1.0000
  Rb  Rb34      1.0  0.56961  0.09248  0.83294  1.0000
  Rb  Rb35      1.0  0.73051  0.20917  0.16929  1.0000
  Rb  Rb36      1.0  0.02418  0.72039  0.50156  1.0000
  Rb  Rb37      1.0  0.38721  0.43608  0.08195  1.0000
  Rb  Rb38      1.0  0.19778  0.62910  0.14411  1.0000
  Rb  Rb39      1.0  0.12412  0.39869  0.52266  1.0000
  Rb  Rb40      1.0  0.34565  0.73921  0.06532  1.0000
  Rb  Rb41      1.0  0.16620  0.02333  0.78527  1.0000
  Rb  Rb42      1.0  0.66612  0.47703  0.21547  1.0000
  Rb  Rb43      1.0  0.88461  0.37523  0.12143  1.0000
  Rb  Rb44      1.0  0.99830  0.95933  0.73428  1.0000
  Rb  Rb45      1.0  0.37641  0.89879  0.52263  1.0000
  Rb  Rb46      1.0  0.11576  0.62505  0.87942  1.0000
  Rb  Rb47      1.0  0.33427  0.52328  0.78525  1.0000
  Rb  Rb48      1.0  0.62415  0.10169  0.47821  1.0000
  Sn  Sn1       1.0  0.77292  0.99863  0.49276  1.0000
  Sn  Sn2       1.0  0.95450  0.80334  0.18412  1.0000
  Sn  Sn3       1.0  0.88650  0.09660  0.40523  1.0000
  Sn  Sn4       1.0  0.50394  0.78583  0.96374  1.0000
  Sn  Sn5       1.0  0.27292  0.50164  0.50815  1.0000
  Sn  Sn6       1.0  0.45362  0.13115  0.27273  1.0000
  Sn  Sn7       1.0  0.72762  0.49856  0.49295  1.0000
  Sn  Sn8       1.0  0.95362  0.36920  0.72806  1.0000
  Sn  Sn9       1.0  0.11405  0.90382  0.59551  1.0000
  Sn  Sn10      1.0  0.62370  0.34919  0.55940  1.0000
  Sn  Sn11      1.0  0.22761  0.00178  0.50803  1.0000
  Sn  Sn12      1.0  0.35464  0.47894  0.35816  1.0000
  Sn  Sn13      1.0  0.45449  0.69707  0.81683  1.0000
  Sn  Sn14      1.0  0.87674  0.84916  0.55934  1.0000
  Sn  Sn15      1.0  0.43323  0.93927  0.76476  1.0000
  Sn  Sn16      1.0  0.04587  0.19695  0.81685  1.0000
  Sn  Sn17      1.0  0.00392  0.71476  0.03702  1.0000
  Sn  Sn18      1.0  0.37669  0.65139  0.44148  1.0000
  Sn  Sn19      1.0  0.12376  0.15124  0.44144  1.0000
  Sn  Sn20      1.0  0.38655  0.40392  0.59538  1.0000
  Sn  Sn21      1.0  0.06717  0.43924  0.76464  1.0000
  Sn  Sn22      1.0  0.56723  0.06121  0.23615  1.0000
  Sn  Sn23      1.0  0.64575  0.52189  0.64238  1.0000
  Sn  Sn24      1.0  0.49652  0.21469  0.03708  1.0000
  Sn  Sn25      1.0  0.14586  0.97877  0.35825  1.0000
  Sn  Sn26      1.0  0.93318  0.56116  0.23608  1.0000
  Sn  Sn27      1.0  0.54591  0.30335  0.18418  1.0000
  Sn  Sn28      1.0  0.54677  0.86922  0.72803  1.0000
  Sn  Sn29      1.0  0.99648  0.28572  0.96378  1.0000
  Sn  Sn30      1.0  0.04676  0.63104  0.27278  1.0000
  Sn  Sn31      1.0  0.61410  0.59664  0.40510  1.0000
  Sn  Sn32      1.0  0.85470  0.02174  0.64245  1.0000
  Ge  Ge1       1.0  0.74136  0.00834  0.01326  1.0000
  Ge  Ge2       1.0  0.24140  0.49167  0.98772  1.0000
  Ge  Ge3       1.0  0.25901  0.99174  0.98768  1.0000
  Ge  Ge4       1.0  0.75897  0.50830  0.01331  1.0000
  O   O1        1.0  0.77530  0.14081  0.98831  1.0000
  O   O2        1.0  0.27206  0.08166  0.83893  1.0000
  O   O3        1.0  0.67693  0.04200  0.93186  1.0000
  O   O4        1.0  0.28603  0.56991  0.03548  1.0000
  O   O5        1.0  0.32344  0.95806  0.06902  1.0000
  O   O6        1.0  0.77204  0.41842  0.16208  1.0000
  O   O7        1.0  0.72506  0.64081  0.98836  1.0000
  O   O8        1.0  0.71437  0.43003  0.96544  1.0000
  O   O9        1.0  0.17699  0.45801  0.06910  1.0000
  O   O10       1.0  0.21440  0.06992  0.03552  1.0000
  O   O11       1.0  0.72834  0.91847  0.16210  1.0000
  O   O12       1.0  0.22837  0.58154  0.83895  1.0000
  O   O13       1.0  0.78595  0.93005  0.96540  1.0000
  O   O14       1.0  0.22513  0.85929  0.01252  1.0000
  O   O15       1.0  0.82339  0.54206  0.93182  1.0000
  O   O16       1.0  0.27531  0.35924  0.01266  1.0000
