data_image0
_chemical_formula_structural       Ba24Mg8Nb16O72
_chemical_formula_sum              "Ba24 Mg8 Nb16 O72"
_cell_length_a       11.6373
_cell_length_b       10.0784
_cell_length_c       14.2859
_cell_angle_alpha    89.9988
_cell_angle_beta     90.0002
_cell_angle_gamma    89.9991

_space_group_name_H-M_alt    "P 1"
_space_group_IT_number       1

loop_
  _space_group_symop_operation_xyz
  'x, y, z'

loop_
  _atom_site_type_symbol
  _atom_site_label
  _atom_site_symmetry_multiplicity
  _atom_site_fract_x
  _atom_site_fract_y
  _atom_site_fract_z
  _atom_site_occupancy
  Ba  Ba1       1.0  0.00038  0.00045  0.00034  1.0000
  Ba  Ba2       1.0  0.00044  0.00048  0.50034  1.0000
  Ba  Ba3       1.0  0.25041  0.50059  0.00030  1.0000
  Ba  Ba4       1.0  0.25044  0.50050  0.50033  1.0000
  Ba  Ba5       1.0  0.50041  0.00062  0.00032  1.0000
  Ba  Ba6       1.0  0.50040  0.00045  0.50035  1.0000
  Ba  Ba7       1.0  0.75040  0.50057  0.00029  1.0000
  Ba  Ba8       1.0  0.75047  0.50052  0.50028  1.0000
  Ba  Ba9       1.0  0.25050  0.16719  0.33365  1.0000
  Ba  Ba10      1.0  0.25051  0.16723  0.83367  1.0000
  Ba  Ba11      1.0  0.50048  0.66716  0.33370  1.0000
  Ba  Ba12      1.0  0.50031  0.66735  0.83368  1.0000
  Ba  Ba13      1.0  0.75046  0.16727  0.33369  1.0000
  Ba  Ba14      1.0  0.75038  0.16718  0.83366  1.0000
  Ba  Ba15      1.0  0.00039  0.66710  0.33368  1.0000
  Ba  Ba16      1.0  0.00042  0.66711  0.83371  1.0000
  Ba  Ba17      1.0  0.25031  0.83393  0.16688  1.0000
  Ba  Ba18      1.0  0.25038  0.83381  0.66690  1.0000
  Ba  Ba19      1.0  0.50051  0.33395  0.16689  1.0000
  Ba  Ba20      1.0  0.50040  0.33390  0.66691  1.0000
  Ba  Ba21      1.0  0.75036  0.83395  0.16692  1.0000
  Ba  Ba22      1.0  0.75044  0.83388  0.66691  1.0000
  Ba  Ba23      1.0  0.00049  0.33378  0.16693  1.0000
  Ba  Ba24      1.0  0.00046  0.33382  0.66694  1.0000
  Mg  Mg1       1.0  0.00042  0.00050  0.25030  1.0000
  Mg  Mg2       1.0  0.00041  0.00047  0.75029  1.0000
  Mg  Mg3       1.0  0.25043  0.50051  0.25031  1.0000
  Mg  Mg4       1.0  0.25046  0.50051  0.75035  1.0000
  Mg  Mg5       1.0  0.50040  0.00051  0.25034  1.0000
  Mg  Mg6       1.0  0.50038  0.00055  0.75031  1.0000
  Mg  Mg7       1.0  0.75042  0.50057  0.25027  1.0000
  Mg  Mg8       1.0  0.75044  0.50048  0.75030  1.0000
  Nb  Nb1       1.0  0.25045  0.16721  0.09002  1.0000
  Nb  Nb2       1.0  0.25044  0.16713  0.59005  1.0000
  Nb  Nb3       1.0  0.50034  0.66733  0.09004  1.0000
  Nb  Nb4       1.0  0.50043  0.66715  0.59011  1.0000
  Nb  Nb5       1.0  0.75040  0.16722  0.09007  1.0000
  Nb  Nb6       1.0  0.75038  0.16723  0.59007  1.0000
  Nb  Nb7       1.0  0.00038  0.66712  0.09005  1.0000
  Nb  Nb8       1.0  0.00039  0.66713  0.59008  1.0000
  Nb  Nb9       1.0  0.25041  0.83378  0.41055  1.0000
  Nb  Nb10      1.0  0.25033  0.83395  0.91051  1.0000
  Nb  Nb11      1.0  0.50040  0.33388  0.41053  1.0000
  Nb  Nb12      1.0  0.50041  0.33399  0.91054  1.0000
  Nb  Nb13      1.0  0.75040  0.83392  0.41059  1.0000
  Nb  Nb14      1.0  0.75038  0.83387  0.91053  1.0000
  Nb  Nb15      1.0  0.00048  0.33383  0.41058  1.0000
  Nb  Nb16      1.0  0.00044  0.33376  0.91056  1.0000
  O   O1        1.0  0.25049  0.67121  0.33687  1.0000
  O   O2        1.0  0.25034  0.67133  0.83680  1.0000
  O   O3        1.0  0.50047  0.17130  0.33678  1.0000
  O   O4        1.0  0.50031  0.17137  0.83684  1.0000
  O   O5        1.0  0.75046  0.67136  0.33679  1.0000
  O   O6        1.0  0.75038  0.67137  0.83679  1.0000
  O   O7        1.0  0.00057  0.17130  0.33682  1.0000
  O   O8        1.0  0.00044  0.17130  0.83676  1.0000
  O   O9        1.0  0.37235  0.91507  0.33689  1.0000
  O   O10       1.0  0.37227  0.91511  0.83673  1.0000
  O   O11       1.0  0.62231  0.41516  0.33675  1.0000
  O   O12       1.0  0.62239  0.41516  0.83682  1.0000
  O   O13       1.0  0.87233  0.91521  0.33688  1.0000
  O   O14       1.0  0.87228  0.91517  0.83677  1.0000
  O   O15       1.0  0.12236  0.41511  0.33681  1.0000
  O   O16       1.0  0.12246  0.41498  0.83690  1.0000
  O   O17       1.0  0.12852  0.91498  0.33672  1.0000
  O   O18       1.0  0.12847  0.91517  0.83673  1.0000
  O   O19       1.0  0.37849  0.41505  0.33671  1.0000
  O   O20       1.0  0.37857  0.41527  0.83678  1.0000
  O   O21       1.0  0.62845  0.91503  0.33681  1.0000
  O   O22       1.0  0.62846  0.91515  0.83680  1.0000
  O   O23       1.0  0.87853  0.41508  0.33681  1.0000
  O   O24       1.0  0.87858  0.41516  0.83682  1.0000
  O   O25       1.0  0.37226  0.08577  0.16380  1.0000
  O   O26       1.0  0.37237  0.08583  0.66377  1.0000
  O   O27       1.0  0.62231  0.58592  0.16373  1.0000
  O   O28       1.0  0.62234  0.58578  0.66375  1.0000
  O   O29       1.0  0.87228  0.08589  0.16387  1.0000
  O   O30       1.0  0.87228  0.08577  0.66373  1.0000
  O   O31       1.0  0.12232  0.58587  0.16380  1.0000
  O   O32       1.0  0.12227  0.58575  0.66383  1.0000
  O   O33       1.0  0.12850  0.08590  0.16375  1.0000
  O   O34       1.0  0.12851  0.08587  0.66380  1.0000
  O   O35       1.0  0.37848  0.58607  0.16386  1.0000
  O   O36       1.0  0.37853  0.58574  0.66384  1.0000
  O   O37       1.0  0.62847  0.08599  0.16384  1.0000
  O   O38       1.0  0.62849  0.08599  0.66389  1.0000
  O   O39       1.0  0.87850  0.58594  0.16384  1.0000
  O   O40       1.0  0.87850  0.58585  0.66386  1.0000
  O   O41       1.0  0.25054  0.32969  0.16384  1.0000
  O   O42       1.0  0.25051  0.32961  0.66387  1.0000
  O   O43       1.0  0.50044  0.82979  0.16385  1.0000
  O   O44       1.0  0.50046  0.82961  0.66393  1.0000
  O   O45       1.0  0.75052  0.32979  0.16381  1.0000
  O   O46       1.0  0.75050  0.32971  0.66385  1.0000
  O   O47       1.0  0.00038  0.82971  0.16378  1.0000
  O   O48       1.0  0.00043  0.82967  0.66385  1.0000
  O   O49       1.0  0.12548  0.75067  0.00035  1.0000
  O   O50       1.0  0.12537  0.75053  0.50035  1.0000
  O   O51       1.0  0.37536  0.25070  0.00031  1.0000
  O   O52       1.0  0.37534  0.25047  0.50022  1.0000
  O   O53       1.0  0.62546  0.75064  0.00033  1.0000
  O   O54       1.0  0.62535  0.75046  0.50034  1.0000
  O   O55       1.0  0.87546  0.25053  0.00033  1.0000
  O   O56       1.0  0.87538  0.25046  0.50029  1.0000
  O   O57       1.0  0.12535  0.25051  0.00037  1.0000
  O   O58       1.0  0.12535  0.25067  0.50043  1.0000
  O   O59       1.0  0.37548  0.75060  0.00026  1.0000
  O   O60       1.0  0.37531  0.75058  0.50045  1.0000
  O   O61       1.0  0.62543  0.25060  0.00034  1.0000
  O   O62       1.0  0.62538  0.25056  0.50033  1.0000
  O   O63       1.0  0.87543  0.75044  0.00026  1.0000
  O   O64       1.0  0.87533  0.75053  0.50041  1.0000
  O   O65       1.0  0.25049  0.00064  0.00020  1.0000
  O   O66       1.0  0.25025  0.00054  0.50028  1.0000
  O   O67       1.0  0.50035  0.50059  0.00028  1.0000
  O   O68       1.0  0.50029  0.50048  0.50026  1.0000
  O   O69       1.0  0.75043  0.00061  0.00029  1.0000
  O   O70       1.0  0.75021  0.00048  0.50030  1.0000
  O   O71       1.0  0.00047  0.50059  0.00031  1.0000
  O   O72       1.0  0.00039  0.50058  0.50028  1.0000
