data_image0
_chemical_formula_structural       K36Na36O36
_chemical_formula_sum              "K36 Na36 O36"
_cell_length_a       11.8757
_cell_length_b       11.8757
_cell_length_c       12.3343
_cell_angle_alpha    90.0038
_cell_angle_beta     90.0053
_cell_angle_gamma    90.0003

_space_group_name_H-M_alt    "P 1"
_space_group_IT_number       1

loop_
  _space_group_symop_operation_xyz
  'x, y, z'

loop_
  _atom_site_type_symbol
  _atom_site_label
  _atom_site_symmetry_multiplicity
  _atom_site_fract_x
  _atom_site_fract_y
  _atom_site_fract_z
  _atom_site_occupancy
  K   K1        1.0  0.08373  0.08374  0.18261  1.0000
  K   K2        1.0  0.08376  0.08361  0.68241  1.0000
  K   K3        1.0  0.08363  0.41737  0.18242  1.0000
  K   K4        1.0  0.08380  0.41701  0.68239  1.0000
  K   K5        1.0  0.08383  0.75056  0.18251  1.0000
  K   K6        1.0  0.08394  0.75060  0.68259  1.0000
  K   K7        1.0  0.41712  0.08394  0.18232  1.0000
  K   K8        1.0  0.41687  0.08363  0.68242  1.0000
  K   K9        1.0  0.41704  0.41713  0.18234  1.0000
  K   K10       1.0  0.41748  0.41720  0.68251  1.0000
  K   K11       1.0  0.41718  0.75062  0.18239  1.0000
  K   K12       1.0  0.41723  0.75063  0.68238  1.0000
  K   K13       1.0  0.75036  0.08398  0.18259  1.0000
  K   K14       1.0  0.75044  0.08386  0.68251  1.0000
  K   K15       1.0  0.75055  0.41730  0.18242  1.0000
  K   K16       1.0  0.75059  0.41716  0.68252  1.0000
  K   K17       1.0  0.75042  0.75049  0.18256  1.0000
  K   K18       1.0  0.75051  0.75051  0.68266  1.0000
  K   K19       1.0  0.25044  0.25054  0.31834  1.0000
  K   K20       1.0  0.25048  0.25036  0.81826  1.0000
  K   K21       1.0  0.25049  0.58369  0.31830  1.0000
  K   K22       1.0  0.25047  0.58366  0.81828  1.0000
  K   K23       1.0  0.25064  0.91714  0.31845  1.0000
  K   K24       1.0  0.25038  0.91719  0.81856  1.0000
  K   K25       1.0  0.58383  0.25060  0.31841  1.0000
  K   K26       1.0  0.58369  0.25045  0.81842  1.0000
  K   K27       1.0  0.58362  0.58395  0.31844  1.0000
  K   K28       1.0  0.58384  0.58380  0.81847  1.0000
  K   K29       1.0  0.58361  0.91748  0.31831  1.0000
  K   K30       1.0  0.58389  0.91723  0.81849  1.0000
  K   K31       1.0  0.91699  0.25058  0.31844  1.0000
  K   K32       1.0  0.91741  0.25054  0.81846  1.0000
  K   K33       1.0  0.91690  0.58392  0.31844  1.0000
  K   K34       1.0  0.91711  0.58389  0.81845  1.0000
  K   K35       1.0  0.91699  0.91702  0.31843  1.0000
  K   K36       1.0  0.91707  0.91718  0.81847  1.0000
  Na  Na1       1.0  0.08418  0.25063  0.00004  1.0000
  Na  Na2       1.0  0.08401  0.25066  0.49989  1.0000
  Na  Na3       1.0  0.08376  0.58405  0.00049  1.0000
  Na  Na4       1.0  0.08365  0.58382  0.50042  1.0000
  Na  Na5       1.0  0.08385  0.91715  0.00015  1.0000
  Na  Na6       1.0  0.08371  0.91696  0.50011  1.0000
  Na  Na7       1.0  0.41666  0.25071  0.00002  1.0000
  Na  Na8       1.0  0.41675  0.25050  0.50009  1.0000
  Na  Na9       1.0  0.41708  0.58398  0.00052  1.0000
  Na  Na10      1.0  0.41705  0.58398  0.50046  1.0000
  Na  Na11      1.0  0.41677  0.91677  0.00014  1.0000
  Na  Na12      1.0  0.41679  0.91671  0.50028  1.0000
  Na  Na13      1.0  0.75014  0.25019  0.00029  1.0000
  Na  Na14      1.0  0.75019  0.25009  0.50052  1.0000
  Na  Na15      1.0  0.75032  0.58411  0.00058  1.0000
  Na  Na16      1.0  0.75026  0.58417  0.50065  1.0000
  Na  Na17      1.0  0.75032  0.91652  0.00077  1.0000
  Na  Na18      1.0  0.75059  0.91644  0.50065  1.0000
  Na  Na19      1.0  0.25045  0.08409  0.99993  1.0000
  Na  Na20      1.0  0.25048  0.08410  0.49975  1.0000
  Na  Na21      1.0  0.25055  0.41679  0.00004  1.0000
  Na  Na22      1.0  0.25059  0.41686  0.50022  1.0000
  Na  Na23      1.0  0.25009  0.75027  0.00042  1.0000
  Na  Na24      1.0  0.25011  0.75013  0.50034  1.0000
  Na  Na25      1.0  0.58390  0.08384  0.00038  1.0000
  Na  Na26      1.0  0.58382  0.08371  0.50043  1.0000
  Na  Na27      1.0  0.58401  0.41711  0.00048  1.0000
  Na  Na28      1.0  0.58398  0.41705  0.50037  1.0000
  Na  Na29      1.0  0.58412  0.75049  0.00063  1.0000
  Na  Na30      1.0  0.58412  0.75036  0.50070  1.0000
  Na  Na31      1.0  0.91680  0.08373  0.00016  1.0000
  Na  Na32      1.0  0.91718  0.08391  0.50011  1.0000
  Na  Na33      1.0  0.91678  0.41686  0.00017  1.0000
  Na  Na34      1.0  0.91653  0.41704  0.50037  1.0000
  Na  Na35      1.0  0.91649  0.75055  0.00069  1.0000
  Na  Na36      1.0  0.91654  0.75038  0.50059  1.0000
  O   O1        1.0  0.25052  0.25052  0.10358  1.0000
  O   O2        1.0  0.25047  0.25047  0.60333  1.0000
  O   O3        1.0  0.25052  0.58378  0.10330  1.0000
  O   O4        1.0  0.25032  0.58373  0.60328  1.0000
  O   O5        1.0  0.25056  0.91725  0.10340  1.0000
  O   O6        1.0  0.25036  0.91712  0.60336  1.0000
  O   O7        1.0  0.58377  0.25045  0.10325  1.0000
  O   O8        1.0  0.58364  0.25043  0.60344  1.0000
  O   O9        1.0  0.58385  0.58391  0.10334  1.0000
  O   O10       1.0  0.58371  0.58384  0.60329  1.0000
  O   O11       1.0  0.58372  0.91713  0.10331  1.0000
  O   O12       1.0  0.58381  0.91704  0.60334  1.0000
  O   O13       1.0  0.91708  0.25048  0.10333  1.0000
  O   O14       1.0  0.91715  0.25063  0.60346  1.0000
  O   O15       1.0  0.91701  0.58385  0.10334  1.0000
  O   O16       1.0  0.91698  0.58393  0.60340  1.0000
  O   O17       1.0  0.91703  0.91716  0.10337  1.0000
  O   O18       1.0  0.91718  0.91718  0.60344  1.0000
  O   O19       1.0  0.08380  0.08385  0.39759  1.0000
  O   O20       1.0  0.08384  0.08389  0.89761  1.0000
  O   O21       1.0  0.08371  0.41719  0.39759  1.0000
  O   O22       1.0  0.08384  0.41719  0.89752  1.0000
  O   O23       1.0  0.08360  0.75041  0.39741  1.0000
  O   O24       1.0  0.08363  0.75066  0.89759  1.0000
  O   O25       1.0  0.41710  0.08373  0.39751  1.0000
  O   O26       1.0  0.41704  0.08392  0.89758  1.0000
  O   O27       1.0  0.41708  0.41714  0.39744  1.0000
  O   O28       1.0  0.41720  0.41718  0.89755  1.0000
  O   O29       1.0  0.41715  0.75044  0.39746  1.0000
  O   O30       1.0  0.41723  0.75058  0.89744  1.0000
  O   O31       1.0  0.75040  0.08371  0.39769  1.0000
  O   O32       1.0  0.75041  0.08365  0.89743  1.0000
  O   O33       1.0  0.75032  0.41707  0.39749  1.0000
  O   O34       1.0  0.75050  0.41728  0.89752  1.0000
  O   O35       1.0  0.75043  0.75037  0.39728  1.0000
  O   O36       1.0  0.75044  0.75055  0.89750  1.0000
