data_image0
_chemical_formula_structural       K16Zr8Si24O72
_chemical_formula_sum              "K16 Zr8 Si24 O72"
_cell_length_a       13.8413
_cell_length_b       11.9867
_cell_length_c       10.2631
_cell_angle_alpha    89.9998
_cell_angle_beta     89.9982
_cell_angle_gamma    89.9996

_space_group_name_H-M_alt    "P 1"
_space_group_IT_number       1

loop_
  _space_group_symop_operation_xyz
  'x, y, z'

loop_
  _atom_site_type_symbol
  _atom_site_label
  _atom_site_symmetry_multiplicity
  _atom_site_fract_x
  _atom_site_fract_y
  _atom_site_fract_z
  _atom_site_occupancy
  K   K1        1.0  0.25039  0.16707  0.05602  1.0000
  K   K2        1.0  0.50040  0.66710  0.05590  1.0000
  K   K3        1.0  0.75042  0.16720  0.05591  1.0000
  K   K4        1.0  0.00038  0.66706  0.05583  1.0000
  K   K5        1.0  0.25040  0.83381  0.55596  1.0000
  K   K6        1.0  0.50044  0.33373  0.55590  1.0000
  K   K7        1.0  0.75038  0.83381  0.55587  1.0000
  K   K8        1.0  0.00045  0.33366  0.55603  1.0000
  K   K9        1.0  0.25041  0.16713  0.44505  1.0000
  K   K10       1.0  0.50037  0.66709  0.44501  1.0000
  K   K11       1.0  0.75038  0.16709  0.44494  1.0000
  K   K12       1.0  0.00040  0.66709  0.44488  1.0000
  K   K13       1.0  0.25040  0.83377  0.94499  1.0000
  K   K14       1.0  0.50034  0.33368  0.94495  1.0000
  K   K15       1.0  0.75042  0.83375  0.94489  1.0000
  K   K16       1.0  0.00035  0.33369  0.94501  1.0000
  Zr  Zr1       1.0  0.00036  0.00040  0.00045  1.0000
  Zr  Zr2       1.0  0.25039  0.50041  0.00045  1.0000
  Zr  Zr3       1.0  0.50045  0.00042  0.00042  1.0000
  Zr  Zr4       1.0  0.75037  0.50041  0.00049  1.0000
  Zr  Zr5       1.0  0.00045  0.00041  0.50044  1.0000
  Zr  Zr6       1.0  0.25041  0.50044  0.50048  1.0000
  Zr  Zr7       1.0  0.50037  0.00040  0.50042  1.0000
  Zr  Zr8       1.0  0.75038  0.50046  0.50046  1.0000
  Si  Si1       1.0  0.33861  0.06184  0.75052  1.0000
  Si  Si2       1.0  0.58863  0.56186  0.75051  1.0000
  Si  Si3       1.0  0.83863  0.06188  0.75037  1.0000
  Si  Si4       1.0  0.08859  0.56185  0.75048  1.0000
  Si  Si5       1.0  0.37342  0.86936  0.25041  1.0000
  Si  Si6       1.0  0.62340  0.36936  0.25050  1.0000
  Si  Si7       1.0  0.87342  0.86937  0.25047  1.0000
  Si  Si8       1.0  0.12340  0.36935  0.25048  1.0000
  Si  Si9       1.0  0.21559  0.69292  0.25043  1.0000
  Si  Si10      1.0  0.46559  0.19293  0.25044  1.0000
  Si  Si11      1.0  0.71557  0.69295  0.25051  1.0000
  Si  Si12      1.0  0.96555  0.19291  0.25049  1.0000
  Si  Si13      1.0  0.28525  0.30793  0.75043  1.0000
  Si  Si14      1.0  0.53521  0.80791  0.75041  1.0000
  Si  Si15      1.0  0.78520  0.30795  0.75038  1.0000
  Si  Si16      1.0  0.03520  0.80789  0.75045  1.0000
  Si  Si17      1.0  0.12739  0.13146  0.75055  1.0000
  Si  Si18      1.0  0.37737  0.63151  0.75046  1.0000
  Si  Si19      1.0  0.62740  0.13144  0.75035  1.0000
  Si  Si20      1.0  0.87733  0.63149  0.75043  1.0000
  Si  Si21      1.0  0.16219  0.93898  0.25047  1.0000
  Si  Si22      1.0  0.41217  0.43900  0.25047  1.0000
  Si  Si23      1.0  0.66219  0.93901  0.25042  1.0000
  Si  Si24      1.0  0.91216  0.43896  0.25045  1.0000
  O   O1        1.0  0.12373  0.99313  0.38385  1.0000
  O   O2        1.0  0.37365  0.49317  0.38378  1.0000
  O   O3        1.0  0.62360  0.99320  0.38371  1.0000
  O   O4        1.0  0.87360  0.49314  0.38373  1.0000
  O   O5        1.0  0.06750  0.12010  0.88389  1.0000
  O   O6        1.0  0.31752  0.62006  0.88383  1.0000
  O   O7        1.0  0.56753  0.12000  0.88370  1.0000
  O   O8        1.0  0.81738  0.61995  0.88369  1.0000
  O   O9        1.0  0.30661  0.37354  0.88376  1.0000
  O   O10       1.0  0.55656  0.87354  0.88371  1.0000
  O   O11       1.0  0.80653  0.37351  0.88375  1.0000
  O   O12       1.0  0.05659  0.87353  0.88374  1.0000
  O   O13       1.0  0.19426  0.62733  0.38378  1.0000
  O   O14       1.0  0.44421  0.12731  0.38375  1.0000
  O   O15       1.0  0.69416  0.62733  0.38380  1.0000
  O   O16       1.0  0.94423  0.12733  0.38385  1.0000
  O   O17       1.0  0.43320  0.88077  0.38383  1.0000
  O   O18       1.0  0.68326  0.38080  0.38383  1.0000
  O   O19       1.0  0.93339  0.88084  0.38370  1.0000
  O   O20       1.0  0.18331  0.38081  0.38379  1.0000
  O   O21       1.0  0.37711  0.00766  0.88385  1.0000
  O   O22       1.0  0.62707  0.50768  0.88387  1.0000
  O   O23       1.0  0.87714  0.00776  0.88374  1.0000
  O   O24       1.0  0.12709  0.50767  0.88381  1.0000
  O   O25       1.0  0.37714  0.00771  0.61718  1.0000
  O   O26       1.0  0.62716  0.50764  0.61722  1.0000
  O   O27       1.0  0.87715  0.00768  0.61707  1.0000
  O   O28       1.0  0.12716  0.50770  0.61716  1.0000
  O   O29       1.0  0.43342  0.88087  0.11720  1.0000
  O   O30       1.0  0.68328  0.38083  0.11717  1.0000
  O   O31       1.0  0.93321  0.88079  0.11707  1.0000
  O   O32       1.0  0.18325  0.38083  0.11712  1.0000
  O   O33       1.0  0.19421  0.62731  0.11711  1.0000
  O   O34       1.0  0.44427  0.12737  0.11706  1.0000
  O   O35       1.0  0.69425  0.62733  0.11718  1.0000
  O   O36       1.0  0.94419  0.12729  0.11716  1.0000
  O   O37       1.0  0.30665  0.37350  0.61710  1.0000
  O   O38       1.0  0.55655  0.87349  0.61708  1.0000
  O   O39       1.0  0.80663  0.37359  0.61710  1.0000
  O   O40       1.0  0.05655  0.87344  0.61710  1.0000
  O   O41       1.0  0.06750  0.12000  0.61723  1.0000
  O   O42       1.0  0.31745  0.62005  0.61716  1.0000
  O   O43       1.0  0.56752  0.12000  0.61703  1.0000
  O   O44       1.0  0.81748  0.62016  0.61706  1.0000
  O   O45       1.0  0.12358  0.99311  0.11718  1.0000
  O   O46       1.0  0.37361  0.49310  0.11713  1.0000
  O   O47       1.0  0.62374  0.99312  0.11702  1.0000
  O   O48       1.0  0.87369  0.49311  0.11709  1.0000
  O   O49       1.0  0.14380  0.80322  0.25050  1.0000
  O   O50       1.0  0.39378  0.30322  0.25047  1.0000
  O   O51       1.0  0.64379  0.80327  0.25047  1.0000
  O   O52       1.0  0.89372  0.30320  0.25045  1.0000
  O   O53       1.0  0.21999  0.04512  0.75056  1.0000
  O   O54       1.0  0.47000  0.54525  0.75041  1.0000
  O   O55       1.0  0.72002  0.04514  0.75033  1.0000
  O   O56       1.0  0.96995  0.54523  0.75045  1.0000
  O   O57       1.0  0.17422  0.25841  0.75047  1.0000
  O   O58       1.0  0.42417  0.75847  0.75045  1.0000
  O   O59       1.0  0.67419  0.25842  0.75032  1.0000
  O   O60       1.0  0.92415  0.75844  0.75058  1.0000
  O   O61       1.0  0.32659  0.74240  0.25029  1.0000
  O   O62       1.0  0.57660  0.24241  0.25047  1.0000
  O   O63       1.0  0.82660  0.74242  0.25060  1.0000
  O   O64       1.0  0.07658  0.24239  0.25045  1.0000
  O   O65       1.0  0.28080  0.95563  0.25032  1.0000
  O   O66       1.0  0.53081  0.45567  0.25048  1.0000
  O   O67       1.0  0.78081  0.95568  0.25052  1.0000
  O   O68       1.0  0.03078  0.45562  0.25050  1.0000
  O   O69       1.0  0.35703  0.19759  0.75047  1.0000
  O   O70       1.0  0.60703  0.69761  0.75045  1.0000
  O   O71       1.0  0.85701  0.19764  0.75029  1.0000
  O   O72       1.0  0.10699  0.69759  0.75048  1.0000
