data_image0
_chemical_formula_structural       Mg16Zr40O96
_chemical_formula_sum              "Mg16 Zr40 O96"
_cell_length_a       12.1232
_cell_length_b       12.3422
_cell_length_c       12.4142
_cell_angle_alpha    99.5425
_cell_angle_beta     99.4826
_cell_angle_gamma    98.8592

_space_group_name_H-M_alt    "P 1"
_space_group_IT_number       1

loop_
  _space_group_symop_operation_xyz
  'x, y, z'

loop_
  _atom_site_type_symbol
  _atom_site_label
  _atom_site_symmetry_multiplicity
  _atom_site_fract_x
  _atom_site_fract_y
  _atom_site_fract_z
  _atom_site_occupancy
  Mg  Mg1       1.0  0.20289  0.43232  0.09118  1.0000
  Mg  Mg2       1.0  0.20288  0.93231  0.09116  1.0000
  Mg  Mg3       1.0  0.70291  0.43233  0.09115  1.0000
  Mg  Mg4       1.0  0.70287  0.93232  0.09115  1.0000
  Mg  Mg5       1.0  0.43108  0.33938  0.45415  1.0000
  Mg  Mg6       1.0  0.43112  0.83938  0.45414  1.0000
  Mg  Mg7       1.0  0.93108  0.33938  0.45417  1.0000
  Mg  Mg8       1.0  0.93108  0.83936  0.45415  1.0000
  Mg  Mg9       1.0  0.07006  0.16164  0.54662  1.0000
  Mg  Mg10      1.0  0.07000  0.66162  0.54665  1.0000
  Mg  Mg11      1.0  0.57005  0.16162  0.54668  1.0000
  Mg  Mg12      1.0  0.57004  0.66165  0.54662  1.0000
  Mg  Mg13      1.0  0.29822  0.06863  0.90965  1.0000
  Mg  Mg14      1.0  0.29824  0.56866  0.90967  1.0000
  Mg  Mg15      1.0  0.79821  0.06865  0.90961  1.0000
  Mg  Mg16      1.0  0.79825  0.56865  0.90966  1.0000
  Zr  Zr1       1.0  0.49443  0.49723  0.25280  1.0000
  Zr  Zr2       1.0  0.49443  0.99723  0.25279  1.0000
  Zr  Zr3       1.0  0.99442  0.49722  0.25277  1.0000
  Zr  Zr4       1.0  0.99445  0.99726  0.25283  1.0000
  Zr  Zr5       1.0  0.16089  0.30490  0.81953  1.0000
  Zr  Zr6       1.0  0.16090  0.80489  0.81951  1.0000
  Zr  Zr7       1.0  0.66090  0.30490  0.81952  1.0000
  Zr  Zr8       1.0  0.66090  0.80487  0.81951  1.0000
  Zr  Zr9       1.0  0.19358  0.42745  0.58873  1.0000
  Zr  Zr10      1.0  0.19356  0.92746  0.58871  1.0000
  Zr  Zr11      1.0  0.69355  0.42744  0.58867  1.0000
  Zr  Zr12      1.0  0.69356  0.92747  0.58873  1.0000
  Zr  Zr13      1.0  0.00668  0.00375  0.74800  1.0000
  Zr  Zr14      1.0  0.00666  0.50375  0.74800  1.0000
  Zr  Zr15      1.0  0.50669  0.00374  0.74801  1.0000
  Zr  Zr16      1.0  0.50668  0.50373  0.74797  1.0000
  Zr  Zr17      1.0  0.43294  0.35060  0.94970  1.0000
  Zr  Zr18      1.0  0.43293  0.85053  0.94970  1.0000
  Zr  Zr19      1.0  0.93291  0.35058  0.94970  1.0000
  Zr  Zr20      1.0  0.93292  0.85057  0.94971  1.0000
  Zr  Zr21      1.0  0.15012  0.30771  0.32039  1.0000
  Zr  Zr22      1.0  0.15014  0.80770  0.32041  1.0000
  Zr  Zr23      1.0  0.65010  0.30768  0.32040  1.0000
  Zr  Zr24      1.0  0.65012  0.80768  0.32040  1.0000
  Zr  Zr25      1.0  0.06820  0.15039  0.05109  1.0000
  Zr  Zr26      1.0  0.06820  0.65043  0.05111  1.0000
  Zr  Zr27      1.0  0.56820  0.15042  0.05109  1.0000
  Zr  Zr28      1.0  0.56821  0.65039  0.05110  1.0000
  Zr  Zr29      1.0  0.34021  0.19611  0.18129  1.0000
  Zr  Zr30      1.0  0.34020  0.69609  0.18129  1.0000
  Zr  Zr31      1.0  0.84021  0.19610  0.18128  1.0000
  Zr  Zr32      1.0  0.84023  0.69610  0.18130  1.0000
  Zr  Zr33      1.0  0.35100  0.19332  0.68041  1.0000
  Zr  Zr34      1.0  0.35100  0.69329  0.68040  1.0000
  Zr  Zr35      1.0  0.85099  0.19331  0.68041  1.0000
  Zr  Zr36      1.0  0.85099  0.69331  0.68041  1.0000
  Zr  Zr37      1.0  0.30759  0.07356  0.41209  1.0000
  Zr  Zr38      1.0  0.30756  0.57356  0.41213  1.0000
  Zr  Zr39      1.0  0.80757  0.07355  0.41212  1.0000
  Zr  Zr40      1.0  0.80758  0.57353  0.41209  1.0000
  O   O1        1.0  0.16873  0.46858  0.78979  1.0000
  O   O2        1.0  0.16873  0.96859  0.78981  1.0000
  O   O3        1.0  0.66873  0.46858  0.78981  1.0000
  O   O4        1.0  0.66875  0.96856  0.78977  1.0000
  O   O5        1.0  0.03429  0.45960  0.09027  1.0000
  O   O6        1.0  0.03427  0.95956  0.09027  1.0000
  O   O7        1.0  0.53426  0.45957  0.09026  1.0000
  O   O8        1.0  0.53429  0.95955  0.09026  1.0000
  O   O9        1.0  0.15658  0.47425  0.30943  1.0000
  O   O10       1.0  0.15660  0.97427  0.30943  1.0000
  O   O11       1.0  0.65657  0.47423  0.30944  1.0000
  O   O12       1.0  0.65658  0.97426  0.30943  1.0000
  O   O13       1.0  0.28610  0.40664  0.96007  1.0000
  O   O14       1.0  0.28612  0.90661  0.96012  1.0000
  O   O15       1.0  0.78608  0.40666  0.96008  1.0000
  O   O16       1.0  0.78610  0.90666  0.96005  1.0000
  O   O17       1.0  0.02922  0.44487  0.59107  1.0000
  O   O18       1.0  0.02918  0.94484  0.59108  1.0000
  O   O19       1.0  0.52917  0.44480  0.59105  1.0000
  O   O20       1.0  0.52920  0.94490  0.59107  1.0000
  O   O21       1.0  0.46385  0.34116  0.78504  1.0000
  O   O22       1.0  0.46390  0.84113  0.78505  1.0000
  O   O23       1.0  0.96384  0.34115  0.78504  1.0000
  O   O24       1.0  0.96383  0.84116  0.78508  1.0000
  O   O25       1.0  0.29010  0.41039  0.45685  1.0000
  O   O26       1.0  0.29008  0.91037  0.45684  1.0000
  O   O27       1.0  0.79007  0.41038  0.45682  1.0000
  O   O28       1.0  0.79008  0.91040  0.45688  1.0000
  O   O29       1.0  0.08592  0.27390  0.95246  1.0000
  O   O30       1.0  0.08594  0.77388  0.95244  1.0000
  O   O31       1.0  0.58588  0.27386  0.95241  1.0000
  O   O32       1.0  0.58588  0.77385  0.95242  1.0000
  O   O33       1.0  0.20713  0.29137  0.16056  1.0000
  O   O34       1.0  0.20709  0.79136  0.16055  1.0000
  O   O35       1.0  0.70710  0.29136  0.16055  1.0000
  O   O36       1.0  0.70708  0.79133  0.16052  1.0000
  O   O37       1.0  0.45607  0.33783  0.28226  1.0000
  O   O38       1.0  0.45608  0.83783  0.28225  1.0000
  O   O39       1.0  0.95606  0.33783  0.28227  1.0000
  O   O40       1.0  0.95608  0.83786  0.28230  1.0000
  O   O41       1.0  0.09373  0.28988  0.46141  1.0000
  O   O42       1.0  0.09375  0.78982  0.46143  1.0000
  O   O43       1.0  0.59373  0.28984  0.46144  1.0000
  O   O44       1.0  0.59374  0.78988  0.46143  1.0000
  O   O45       1.0  0.29400  0.20962  0.84026  1.0000
  O   O46       1.0  0.29403  0.70962  0.84024  1.0000
  O   O47       1.0  0.79404  0.20966  0.84028  1.0000
  O   O48       1.0  0.79401  0.70963  0.84026  1.0000
  O   O49       1.0  0.22371  0.29371  0.66487  1.0000
  O   O50       1.0  0.22370  0.79369  0.66487  1.0000
  O   O51       1.0  0.72369  0.29367  0.66486  1.0000
  O   O52       1.0  0.72367  0.79367  0.66484  1.0000
  O   O53       1.0  0.41521  0.22713  0.04836  1.0000
  O   O54       1.0  0.41522  0.72704  0.04836  1.0000
  O   O55       1.0  0.91523  0.22716  0.04836  1.0000
  O   O56       1.0  0.91518  0.72712  0.04835  1.0000
  O   O57       1.0  0.03730  0.15984  0.21576  1.0000
  O   O58       1.0  0.03727  0.65986  0.21575  1.0000
  O   O59       1.0  0.53726  0.15985  0.21573  1.0000
  O   O60       1.0  0.53728  0.65982  0.21575  1.0000
  O   O61       1.0  0.27741  0.20730  0.33593  1.0000
  O   O62       1.0  0.27743  0.70731  0.33591  1.0000
  O   O63       1.0  0.77744  0.20729  0.33593  1.0000
  O   O64       1.0  0.77743  0.70731  0.33592  1.0000
  O   O65       1.0  0.40739  0.21112  0.53935  1.0000
  O   O66       1.0  0.40739  0.71117  0.53937  1.0000
  O   O67       1.0  0.90739  0.21115  0.53938  1.0000
  O   O68       1.0  0.90739  0.71112  0.53937  1.0000
  O   O69       1.0  0.21500  0.09431  0.04072  1.0000
  O   O70       1.0  0.21499  0.59432  0.04071  1.0000
  O   O71       1.0  0.71499  0.09432  0.04069  1.0000
  O   O72       1.0  0.71501  0.59428  0.04076  1.0000
  O   O73       1.0  0.04508  0.16315  0.71855  1.0000
  O   O74       1.0  0.04507  0.66316  0.71854  1.0000
  O   O75       1.0  0.54506  0.16315  0.71853  1.0000
  O   O76       1.0  0.54505  0.66314  0.71851  1.0000
  O   O77       1.0  0.46684  0.04144  0.91053  1.0000
  O   O78       1.0  0.46685  0.54140  0.91055  1.0000
  O   O79       1.0  0.96683  0.04144  0.91055  1.0000
  O   O80       1.0  0.96683  0.54143  0.91054  1.0000
  O   O81       1.0  0.21103  0.09063  0.54398  1.0000
  O   O82       1.0  0.21106  0.59062  0.54398  1.0000
  O   O83       1.0  0.71106  0.09064  0.54398  1.0000
  O   O84       1.0  0.71105  0.59059  0.54395  1.0000
  O   O85       1.0  0.33237  0.03242  0.21100  1.0000
  O   O86       1.0  0.33239  0.53242  0.21100  1.0000
  O   O87       1.0  0.83237  0.03240  0.21096  1.0000
  O   O88       1.0  0.83240  0.53239  0.21102  1.0000
  O   O89       1.0  0.47192  0.05612  0.40972  1.0000
  O   O90       1.0  0.47193  0.55616  0.40975  1.0000
  O   O91       1.0  0.97193  0.05615  0.40975  1.0000
  O   O92       1.0  0.97193  0.55613  0.40973  1.0000
  O   O93       1.0  0.34457  0.02674  0.69136  1.0000
  O   O94       1.0  0.34456  0.52673  0.69136  1.0000
  O   O95       1.0  0.84456  0.02675  0.69136  1.0000
  O   O96       1.0  0.84454  0.52674  0.69133  1.0000
