data_image0
_chemical_formula_structural       Ta16Nb16O80
_chemical_formula_sum              "Ta16 Nb16 O80"
_cell_length_a       11.4876
_cell_length_b       14.3747
_cell_length_c       12.3599
_cell_angle_alpha    90
_cell_angle_beta     90
_cell_angle_gamma    90

_space_group_name_H-M_alt    "P 1"
_space_group_IT_number       1

loop_
  _space_group_symop_operation_xyz
  'x, y, z'

loop_
  _atom_site_type_symbol
  _atom_site_label
  _atom_site_symmetry_multiplicity
  _atom_site_fract_x
  _atom_site_fract_y
  _atom_site_fract_z
  _atom_site_occupancy
  Ta  Ta1       1.0  0.12547  0.26652  0.15548  1.0000
  Ta  Ta2       1.0  0.12541  0.76660  0.15547  1.0000
  Ta  Ta3       1.0  0.62533  0.26660  0.15549  1.0000
  Ta  Ta4       1.0  0.62548  0.76651  0.15549  1.0000
  Ta  Ta5       1.0  0.37545  0.01650  0.34548  1.0000
  Ta  Ta6       1.0  0.37555  0.51659  0.34524  1.0000
  Ta  Ta7       1.0  0.87552  0.01658  0.34538  1.0000
  Ta  Ta8       1.0  0.87541  0.51653  0.34535  1.0000
  Ta  Ta9       1.0  0.12547  0.48416  0.65537  1.0000
  Ta  Ta10      1.0  0.12543  0.98421  0.65549  1.0000
  Ta  Ta11      1.0  0.62534  0.48410  0.65553  1.0000
  Ta  Ta12      1.0  0.62550  0.98414  0.65546  1.0000
  Ta  Ta13      1.0  0.37546  0.23416  0.84526  1.0000
  Ta  Ta14      1.0  0.37549  0.73425  0.84538  1.0000
  Ta  Ta15      1.0  0.87547  0.23418  0.84540  1.0000
  Ta  Ta16      1.0  0.87542  0.73423  0.84536  1.0000
  Nb  Nb1       1.0  0.37535  0.42501  0.05602  1.0000
  Nb  Nb2       1.0  0.37551  0.92502  0.05620  1.0000
  Nb  Nb3       1.0  0.87542  0.42504  0.05609  1.0000
  Nb  Nb4       1.0  0.87539  0.92510  0.05610  1.0000
  Nb  Nb5       1.0  0.12538  0.17505  0.44476  1.0000
  Nb  Nb6       1.0  0.12545  0.67498  0.44469  1.0000
  Nb  Nb7       1.0  0.62546  0.17498  0.44475  1.0000
  Nb  Nb8       1.0  0.62540  0.67501  0.44477  1.0000
  Nb  Nb9       1.0  0.37540  0.32566  0.55597  1.0000
  Nb  Nb10      1.0  0.37538  0.82573  0.55618  1.0000
  Nb  Nb11      1.0  0.87536  0.32574  0.55612  1.0000
  Nb  Nb12      1.0  0.87550  0.82567  0.55610  1.0000
  Nb  Nb13      1.0  0.12554  0.07572  0.94472  1.0000
  Nb  Nb14      1.0  0.12543  0.57574  0.94464  1.0000
  Nb  Nb15      1.0  0.62544  0.07576  0.94464  1.0000
  Nb  Nb16      1.0  0.62545  0.57571  0.94470  1.0000
  O   O1        1.0  0.00049  0.00045  0.00049  1.0000
  O   O2        1.0  0.00045  0.50039  0.00041  1.0000
  O   O3        1.0  0.50052  0.00045  0.00061  1.0000
  O   O4        1.0  0.50050  0.50032  0.00043  1.0000
  O   O5        1.0  0.25052  0.00037  0.00034  1.0000
  O   O6        1.0  0.25034  0.50039  0.00038  1.0000
  O   O7        1.0  0.75046  0.00047  0.00041  1.0000
  O   O8        1.0  0.75056  0.50048  0.00032  1.0000
  O   O9        1.0  0.12566  0.15657  0.07688  1.0000
  O   O10       1.0  0.12534  0.65670  0.07680  1.0000
  O   O11       1.0  0.62547  0.15672  0.07681  1.0000
  O   O12       1.0  0.62548  0.65657  0.07688  1.0000
  O   O13       1.0  0.49522  0.33418  0.12073  1.0000
  O   O14       1.0  0.49548  0.83420  0.12067  1.0000
  O   O15       1.0  0.99541  0.33416  0.12076  1.0000
  O   O16       1.0  0.99543  0.83433  0.12078  1.0000
  O   O17       1.0  0.25545  0.33427  0.12080  1.0000
  O   O18       1.0  0.25548  0.83421  0.12076  1.0000
  O   O19       1.0  0.75522  0.33438  0.12063  1.0000
  O   O20       1.0  0.75546  0.83423  0.12080  1.0000
  O   O21       1.0  0.37538  0.49067  0.19757  1.0000
  O   O22       1.0  0.37527  0.99061  0.19780  1.0000
  O   O23       1.0  0.87534  0.49051  0.19768  1.0000
  O   O24       1.0  0.87535  0.99063  0.19770  1.0000
  O   O25       1.0  0.12559  0.24050  0.30313  1.0000
  O   O26       1.0  0.12551  0.74044  0.30309  1.0000
  O   O27       1.0  0.62559  0.24055  0.30318  1.0000
  O   O28       1.0  0.62546  0.74066  0.30316  1.0000
  O   O29       1.0  0.00555  0.08430  0.38005  1.0000
  O   O30       1.0  0.00550  0.58411  0.38013  1.0000
  O   O31       1.0  0.50562  0.08403  0.38013  1.0000
  O   O32       1.0  0.50554  0.58429  0.37997  1.0000
  O   O33       1.0  0.24552  0.08420  0.38032  1.0000
  O   O34       1.0  0.24561  0.58425  0.38014  1.0000
  O   O35       1.0  0.74551  0.08421  0.38004  1.0000
  O   O36       1.0  0.74541  0.58418  0.38008  1.0000
  O   O37       1.0  0.37555  0.40660  0.42376  1.0000
  O   O38       1.0  0.37529  0.90650  0.42397  1.0000
  O   O39       1.0  0.87523  0.40656  0.42390  1.0000
  O   O40       1.0  0.87548  0.90665  0.42406  1.0000
  O   O41       1.0  0.00053  0.25051  0.50039  1.0000
  O   O42       1.0  0.00038  0.75029  0.50034  1.0000
  O   O43       1.0  0.50051  0.25032  0.50037  1.0000
  O   O44       1.0  0.50038  0.75029  0.50055  1.0000
  O   O45       1.0  0.25051  0.25037  0.50035  1.0000
  O   O46       1.0  0.25030  0.75038  0.50053  1.0000
  O   O47       1.0  0.75058  0.25024  0.50051  1.0000
  O   O48       1.0  0.75049  0.75028  0.50037  1.0000
  O   O49       1.0  0.12525  0.09422  0.57697  1.0000
  O   O50       1.0  0.12549  0.59413  0.57683  1.0000
  O   O51       1.0  0.62559  0.09412  0.57689  1.0000
  O   O52       1.0  0.62530  0.59401  0.57685  1.0000
  O   O53       1.0  0.49535  0.41638  0.62089  1.0000
  O   O54       1.0  0.49545  0.91651  0.62075  1.0000
  O   O55       1.0  0.99540  0.41655  0.62072  1.0000
  O   O56       1.0  0.99545  0.91643  0.62083  1.0000
  O   O57       1.0  0.25550  0.41647  0.62061  1.0000
  O   O58       1.0  0.25556  0.91663  0.62083  1.0000
  O   O59       1.0  0.75537  0.41645  0.62076  1.0000
  O   O60       1.0  0.75549  0.91640  0.62087  1.0000
  O   O61       1.0  0.37528  0.25998  0.69759  1.0000
  O   O62       1.0  0.37525  0.76021  0.69772  1.0000
  O   O63       1.0  0.87549  0.26019  0.69777  1.0000
  O   O64       1.0  0.87533  0.76010  0.69769  1.0000
  O   O65       1.0  0.12540  0.01005  0.80317  1.0000
  O   O66       1.0  0.12551  0.51007  0.80306  1.0000
  O   O67       1.0  0.62536  0.01005  0.80313  1.0000
  O   O68       1.0  0.62540  0.51011  0.80318  1.0000
  O   O69       1.0  0.24546  0.16651  0.87998  1.0000
  O   O70       1.0  0.24558  0.66648  0.88020  1.0000
  O   O71       1.0  0.74546  0.16643  0.88004  1.0000
  O   O72       1.0  0.74547  0.66651  0.88016  1.0000
  O   O73       1.0  0.00553  0.16658  0.88006  1.0000
  O   O74       1.0  0.00549  0.66657  0.87996  1.0000
  O   O75       1.0  0.50549  0.16648  0.87999  1.0000
  O   O76       1.0  0.50557  0.66663  0.88003  1.0000
  O   O77       1.0  0.37526  0.34417  0.92381  1.0000
  O   O78       1.0  0.37541  0.84420  0.92398  1.0000
  O   O79       1.0  0.87547  0.34412  0.92400  1.0000
  O   O80       1.0  0.87542  0.84422  0.92389  1.0000
