data_image0
_chemical_formula_structural       Ti36Sn36O108
_chemical_formula_sum              "Ti36 Sn36 O108"
_cell_length_a       15.1944
_cell_length_b       14.5829
_cell_length_c       13.6703
_cell_angle_alpha    80.8001
_cell_angle_beta     72.1168
_cell_angle_gamma    80.1496

_space_group_name_H-M_alt    "P 1"
_space_group_IT_number       1

loop_
  _space_group_symop_operation_xyz
  'x, y, z'

loop_
  _atom_site_type_symbol
  _atom_site_label
  _atom_site_symmetry_multiplicity
  _atom_site_fract_x
  _atom_site_fract_y
  _atom_site_fract_z
  _atom_site_occupancy
  Ti  Ti1       1.0  0.59076  0.03658  0.77752  1.0000
  Ti  Ti2       1.0  0.42402  0.36974  0.77753  1.0000
  Ti  Ti3       1.0  0.47969  0.59189  0.44417  1.0000
  Ti  Ti4       1.0  0.75739  0.70320  0.77751  1.0000
  Ti  Ti5       1.0  0.53519  0.81429  0.11086  1.0000
  Ti  Ti6       1.0  0.81290  0.92539  0.44418  1.0000
  Ti  Ti7       1.0  0.09068  0.03661  0.77755  1.0000
  Ti  Ti8       1.0  0.36855  0.14755  0.11082  1.0000
  Ti  Ti9       1.0  0.64633  0.25865  0.44418  1.0000
  Ti  Ti10      1.0  0.92398  0.36987  0.77747  1.0000
  Ti  Ti11      1.0  0.70168  0.48100  0.11085  1.0000
  Ti  Ti12      1.0  0.97963  0.59207  0.44421  1.0000
  Ti  Ti13      1.0  0.25726  0.70308  0.77752  1.0000
  Ti  Ti14      1.0  0.03513  0.81427  0.11087  1.0000
  Ti  Ti15      1.0  0.31296  0.92540  0.44422  1.0000
  Ti  Ti16      1.0  0.86852  0.14753  0.11085  1.0000
  Ti  Ti17      1.0  0.14625  0.25872  0.44408  1.0000
  Ti  Ti18      1.0  0.20165  0.48093  0.11086  1.0000
  Ti  Ti19      1.0  0.96520  0.18637  0.88986  1.0000
  Ti  Ti20      1.0  0.79845  0.51964  0.88990  1.0000
  Ti  Ti21      1.0  0.85402  0.74186  0.55648  1.0000
  Ti  Ti22      1.0  0.13173  0.85299  0.88979  1.0000
  Ti  Ti23      1.0  0.90968  0.96398  0.22326  1.0000
  Ti  Ti24      1.0  0.18747  0.07527  0.55658  1.0000
  Ti  Ti25      1.0  0.46524  0.18626  0.88987  1.0000
  Ti  Ti26      1.0  0.74299  0.29750  0.22316  1.0000
  Ti  Ti27      1.0  0.02074  0.40854  0.55648  1.0000
  Ti  Ti28      1.0  0.29865  0.51959  0.88999  1.0000
  Ti  Ti29      1.0  0.07635  0.63077  0.22322  1.0000
  Ti  Ti30      1.0  0.35424  0.74175  0.55653  1.0000
  Ti  Ti31      1.0  0.63184  0.85303  0.88982  1.0000
  Ti  Ti32      1.0  0.40962  0.96400  0.22324  1.0000
  Ti  Ti33      1.0  0.68740  0.07510  0.55655  1.0000
  Ti  Ti34      1.0  0.24302  0.29741  0.22315  1.0000
  Ti  Ti35      1.0  0.52089  0.40837  0.55657  1.0000
  Ti  Ti36      1.0  0.57622  0.63075  0.22320  1.0000
  Sn  Sn1       1.0  0.33879  0.93568  0.70204  1.0000
  Sn  Sn2       1.0  0.17218  0.26928  0.70178  1.0000
  Sn  Sn3       1.0  0.22779  0.49129  0.36855  1.0000
  Sn  Sn4       1.0  0.50550  0.60236  0.70199  1.0000
  Sn  Sn5       1.0  0.28315  0.71367  0.03531  1.0000
  Sn  Sn6       1.0  0.56108  0.82467  0.36872  1.0000
  Sn  Sn7       1.0  0.83889  0.93574  0.70191  1.0000
  Sn  Sn8       1.0  0.11658  0.04683  0.03530  1.0000
  Sn  Sn9       1.0  0.39442  0.15803  0.36849  1.0000
  Sn  Sn10      1.0  0.67230  0.26914  0.70183  1.0000
  Sn  Sn11      1.0  0.44995  0.38021  0.03528  1.0000
  Sn  Sn12      1.0  0.72771  0.49136  0.36865  1.0000
  Sn  Sn13      1.0  0.00543  0.60241  0.70197  1.0000
  Sn  Sn14      1.0  0.78326  0.71355  0.03532  1.0000
  Sn  Sn15      1.0  0.06109  0.82465  0.36867  1.0000
  Sn  Sn16      1.0  0.61660  0.04684  0.03539  1.0000
  Sn  Sn17      1.0  0.89438  0.15803  0.36854  1.0000
  Sn  Sn18      1.0  0.94989  0.38023  0.03524  1.0000
  Sn  Sn19      1.0  0.21703  0.28697  0.96541  1.0000
  Sn  Sn20      1.0  0.05039  0.62032  0.96555  1.0000
  Sn  Sn21      1.0  0.10603  0.84262  0.63205  1.0000
  Sn  Sn22      1.0  0.38376  0.95368  0.96551  1.0000
  Sn  Sn23      1.0  0.16151  0.06480  0.29881  1.0000
  Sn  Sn24      1.0  0.43928  0.17586  0.63216  1.0000
  Sn  Sn25      1.0  0.71707  0.28693  0.96551  1.0000
  Sn  Sn26      1.0  0.99481  0.39811  0.29886  1.0000
  Sn  Sn27      1.0  0.27267  0.50920  0.63215  1.0000
  Sn  Sn28      1.0  0.55035  0.62051  0.96532  1.0000
  Sn  Sn29      1.0  0.32817  0.73138  0.29888  1.0000
  Sn  Sn30      1.0  0.60592  0.84257  0.63222  1.0000
  Sn  Sn31      1.0  0.88365  0.95377  0.96549  1.0000
  Sn  Sn32      1.0  0.66157  0.06484  0.29870  1.0000
  Sn  Sn33      1.0  0.93932  0.17594  0.63203  1.0000
  Sn  Sn34      1.0  0.49492  0.39805  0.29878  1.0000
  Sn  Sn35      1.0  0.77260  0.50929  0.63209  1.0000
  Sn  Sn36      1.0  0.82822  0.73135  0.29884  1.0000
  O   O1        1.0  0.59262  0.16616  0.80193  1.0000
  O   O2        1.0  0.42592  0.49936  0.80216  1.0000
  O   O3        1.0  0.48148  0.72161  0.46864  1.0000
  O   O4        1.0  0.75923  0.83280  0.80200  1.0000
  O   O5        1.0  0.53699  0.94385  0.13537  1.0000
  O   O6        1.0  0.81482  0.05493  0.46868  1.0000
  O   O7        1.0  0.09258  0.16620  0.80195  1.0000
  O   O8        1.0  0.37041  0.27721  0.13544  1.0000
  O   O9        1.0  0.64829  0.38822  0.46890  1.0000
  O   O10       1.0  0.92585  0.49944  0.80202  1.0000
  O   O11       1.0  0.70366  0.61058  0.13541  1.0000
  O   O12       1.0  0.98139  0.72171  0.46862  1.0000
  O   O13       1.0  0.25910  0.83273  0.80206  1.0000
  O   O14       1.0  0.03701  0.94382  0.13549  1.0000
  O   O15       1.0  0.31489  0.05497  0.46881  1.0000
  O   O16       1.0  0.87038  0.27717  0.13544  1.0000
  O   O17       1.0  0.14811  0.38834  0.46858  1.0000
  O   O18       1.0  0.20372  0.61048  0.13543  1.0000
  O   O19       1.0  0.63526  0.98373  0.89903  1.0000
  O   O20       1.0  0.46875  0.31699  0.89888  1.0000
  O   O21       1.0  0.52423  0.53914  0.56564  1.0000
  O   O22       1.0  0.80205  0.65036  0.89890  1.0000
  O   O23       1.0  0.57965  0.76147  0.23238  1.0000
  O   O24       1.0  0.85744  0.87256  0.56562  1.0000
  O   O25       1.0  0.13526  0.98371  0.89897  1.0000
  O   O26       1.0  0.41323  0.09470  0.23221  1.0000
  O   O27       1.0  0.69093  0.20579  0.56561  1.0000
  O   O28       1.0  0.96863  0.31705  0.89893  1.0000
  O   O29       1.0  0.74624  0.42818  0.23237  1.0000
  O   O30       1.0  0.02424  0.53926  0.56559  1.0000
  O   O31       1.0  0.30180  0.65037  0.89909  1.0000
  O   O32       1.0  0.07978  0.76152  0.23231  1.0000
  O   O33       1.0  0.35761  0.87248  0.56560  1.0000
  O   O34       1.0  0.91317  0.09470  0.23224  1.0000
  O   O35       1.0  0.19094  0.20597  0.56554  1.0000
  O   O36       1.0  0.24633  0.42808  0.23228  1.0000
  O   O37       1.0  0.83635  0.19289  0.98318  1.0000
  O   O38       1.0  0.66958  0.52643  0.98320  1.0000
  O   O39       1.0  0.72514  0.74838  0.64987  1.0000
  O   O40       1.0  0.00287  0.85965  0.98325  1.0000
  O   O41       1.0  0.78079  0.97076  0.31650  1.0000
  O   O42       1.0  0.05860  0.08191  0.64983  1.0000
  O   O43       1.0  0.33637  0.19298  0.98324  1.0000
  O   O44       1.0  0.61414  0.30403  0.31660  1.0000
  O   O45       1.0  0.89184  0.41516  0.64983  1.0000
  O   O46       1.0  0.16961  0.52615  0.98320  1.0000
  O   O47       1.0  0.94748  0.63732  0.31649  1.0000
  O   O48       1.0  0.22526  0.74844  0.64984  1.0000
  O   O49       1.0  0.50300  0.85945  0.98321  1.0000
  O   O50       1.0  0.28077  0.97086  0.31656  1.0000
  O   O51       1.0  0.55854  0.08172  0.64989  1.0000
  O   O52       1.0  0.11405  0.30393  0.31649  1.0000
  O   O53       1.0  0.39191  0.41507  0.64988  1.0000
  O   O54       1.0  0.44742  0.63717  0.31655  1.0000
  O   O55       1.0  0.71957  0.02979  0.68419  1.0000
  O   O56       1.0  0.55294  0.36315  0.68425  1.0000
  O   O57       1.0  0.60848  0.58544  0.35086  1.0000
  O   O58       1.0  0.88618  0.69652  0.68414  1.0000
  O   O59       1.0  0.66404  0.80785  0.01756  1.0000
  O   O60       1.0  0.94180  0.91875  0.35094  1.0000
  O   O61       1.0  0.21954  0.02983  0.68423  1.0000
  O   O62       1.0  0.49738  0.14097  0.01754  1.0000
  O   O63       1.0  0.77518  0.25213  0.35086  1.0000
  O   O64       1.0  0.05289  0.36336  0.68416  1.0000
  O   O65       1.0  0.83054  0.47428  0.01759  1.0000
  O   O66       1.0  0.10851  0.58549  0.35091  1.0000
  O   O67       1.0  0.38626  0.69648  0.68427  1.0000
  O   O68       1.0  0.16391  0.80776  0.01749  1.0000
  O   O69       1.0  0.44183  0.91871  0.35085  1.0000
  O   O70       1.0  0.99735  0.14105  0.01752  1.0000
  O   O71       1.0  0.27515  0.25218  0.35080  1.0000
  O   O72       1.0  0.33065  0.47433  0.01762  1.0000
  O   O73       1.0  0.92053  0.23917  0.76842  1.0000
  O   O74       1.0  0.75380  0.57246  0.76851  1.0000
  O   O75       1.0  0.80947  0.79468  0.43506  1.0000
  O   O76       1.0  0.08710  0.90587  0.76848  1.0000
  O   O77       1.0  0.86498  0.01689  0.10182  1.0000
  O   O78       1.0  0.14284  0.12803  0.43512  1.0000
  O   O79       1.0  0.42053  0.23907  0.76853  1.0000
  O   O80       1.0  0.69819  0.35025  0.10186  1.0000
  O   O81       1.0  0.97603  0.46138  0.43515  1.0000
  O   O82       1.0  0.25394  0.57237  0.76853  1.0000
  O   O83       1.0  0.03173  0.68357  0.10184  1.0000
  O   O84       1.0  0.30944  0.79467  0.43516  1.0000
  O   O85       1.0  0.58722  0.90582  0.76849  1.0000
  O   O86       1.0  0.36499  0.01687  0.10177  1.0000
  O   O87       1.0  0.64288  0.12800  0.43505  1.0000
  O   O88       1.0  0.19838  0.35019  0.10170  1.0000
  O   O89       1.0  0.47632  0.46119  0.43508  1.0000
  O   O90       1.0  0.53182  0.68357  0.10173  1.0000
  O   O91       1.0  0.96336  0.05675  0.86540  1.0000
  O   O92       1.0  0.79664  0.39003  0.86550  1.0000
  O   O93       1.0  0.85218  0.61225  0.53196  1.0000
  O   O94       1.0  0.12990  0.72331  0.86539  1.0000
  O   O95       1.0  0.90771  0.83444  0.19872  1.0000
  O   O96       1.0  0.18557  0.94564  0.53194  1.0000
  O   O97       1.0  0.46339  0.05669  0.86541  1.0000
  O   O98       1.0  0.74111  0.16787  0.19868  1.0000
  O   O99       1.0  0.01889  0.27893  0.53198  1.0000
  O   O100      1.0  0.29665  0.39001  0.86546  1.0000
  O   O101      1.0  0.07436  0.50117  0.19874  1.0000
  O   O102      1.0  0.35232  0.61212  0.53208  1.0000
  O   O103      1.0  0.63001  0.72344  0.86534  1.0000
  O   O104      1.0  0.40773  0.83441  0.19876  1.0000
  O   O105      1.0  0.68550  0.94554  0.53204  1.0000
  O   O106      1.0  0.24116  0.16778  0.19869  1.0000
  O   O107      1.0  0.51893  0.27882  0.53212  1.0000
  O   O108      1.0  0.57435  0.50117  0.19864  1.0000
