data_image0
_chemical_formula_structural       Hf24Ti24O96
_chemical_formula_sum              "Hf24 Ti24 O96"
_cell_length_a       14.2078
_cell_length_b       11.1964
_cell_length_c       10.0884
_cell_angle_alpha    90.0238
_cell_angle_beta     91.0309
_cell_angle_gamma    90.0038

_space_group_name_H-M_alt    "P 1"
_space_group_IT_number       1

loop_
  _space_group_symop_operation_xyz
  'x, y, z'

loop_
  _atom_site_type_symbol
  _atom_site_label
  _atom_site_symmetry_multiplicity
  _atom_site_fract_x
  _atom_site_fract_y
  _atom_site_fract_z
  _atom_site_occupancy
  Hf  Hf1       1.0  0.00215  0.16280  0.12047  1.0000
  Hf  Hf2       1.0  0.00221  0.66274  0.12040  1.0000
  Hf  Hf3       1.0  0.33554  0.16278  0.12038  1.0000
  Hf  Hf4       1.0  0.33545  0.66272  0.12048  1.0000
  Hf  Hf5       1.0  0.66886  0.16282  0.12048  1.0000
  Hf  Hf6       1.0  0.66884  0.66269  0.12046  1.0000
  Hf  Hf7       1.0  0.16749  0.41071  0.12335  1.0000
  Hf  Hf8       1.0  0.16755  0.91073  0.12329  1.0000
  Hf  Hf9       1.0  0.50077  0.41072  0.12322  1.0000
  Hf  Hf10      1.0  0.50081  0.91070  0.12326  1.0000
  Hf  Hf11      1.0  0.83417  0.41082  0.12330  1.0000
  Hf  Hf12      1.0  0.83422  0.91077  0.12339  1.0000
  Hf  Hf13      1.0  0.16856  0.09258  0.38054  1.0000
  Hf  Hf14      1.0  0.16861  0.59251  0.38053  1.0000
  Hf  Hf15      1.0  0.50184  0.09253  0.38052  1.0000
  Hf  Hf16      1.0  0.50185  0.59256  0.38044  1.0000
  Hf  Hf17      1.0  0.83527  0.09258  0.38064  1.0000
  Hf  Hf18      1.0  0.83528  0.59263  0.38057  1.0000
  Hf  Hf19      1.0  0.16623  0.40725  0.62784  1.0000
  Hf  Hf20      1.0  0.16625  0.90722  0.62786  1.0000
  Hf  Hf21      1.0  0.49954  0.40728  0.62780  1.0000
  Hf  Hf22      1.0  0.49961  0.90728  0.62793  1.0000
  Hf  Hf23      1.0  0.83291  0.40724  0.62781  1.0000
  Hf  Hf24      1.0  0.83286  0.90715  0.62787  1.0000
  Ti  Ti1       1.0  0.33325  0.34163  0.87332  1.0000
  Ti  Ti2       1.0  0.33327  0.84156  0.87334  1.0000
  Ti  Ti3       1.0  0.66658  0.34171  0.87335  1.0000
  Ti  Ti4       1.0  0.66663  0.84160  0.87345  1.0000
  Ti  Ti5       1.0  0.99988  0.34167  0.87333  1.0000
  Ti  Ti6       1.0  0.99990  0.84165  0.87333  1.0000
  Ti  Ti7       1.0  0.99986  0.16393  0.62940  1.0000
  Ti  Ti8       1.0  0.99987  0.66403  0.62929  1.0000
  Ti  Ti9       1.0  0.33319  0.16394  0.62940  1.0000
  Ti  Ti10      1.0  0.33320  0.66401  0.62926  1.0000
  Ti  Ti11      1.0  0.66654  0.16403  0.62926  1.0000
  Ti  Ti12      1.0  0.66647  0.66396  0.62928  1.0000
  Ti  Ti13      1.0  0.33355  0.33537  0.37745  1.0000
  Ti  Ti14      1.0  0.33361  0.83554  0.37742  1.0000
  Ti  Ti15      1.0  0.66689  0.33554  0.37740  1.0000
  Ti  Ti16      1.0  0.66689  0.83545  0.37738  1.0000
  Ti  Ti17      1.0  0.00021  0.33546  0.37748  1.0000
  Ti  Ti18      1.0  0.00030  0.83544  0.37739  1.0000
  Ti  Ti19      1.0  0.16686  0.09257  0.87124  1.0000
  Ti  Ti20      1.0  0.16688  0.59262  0.87113  1.0000
  Ti  Ti21      1.0  0.50028  0.09264  0.87123  1.0000
  Ti  Ti22      1.0  0.50016  0.59268  0.87116  1.0000
  Ti  Ti23      1.0  0.83347  0.09267  0.87118  1.0000
  Ti  Ti24      1.0  0.83348  0.59270  0.87110  1.0000
  O   O1        1.0  0.08203  0.19639  0.95432  1.0000
  O   O2        1.0  0.08201  0.69642  0.95423  1.0000
  O   O3        1.0  0.41550  0.19659  0.95441  1.0000
  O   O4        1.0  0.41536  0.69649  0.95441  1.0000
  O   O5        1.0  0.74876  0.19657  0.95442  1.0000
  O   O6        1.0  0.74875  0.69660  0.95439  1.0000
  O   O7        1.0  0.07277  0.19508  0.47170  1.0000
  O   O8        1.0  0.07286  0.69515  0.47168  1.0000
  O   O9        1.0  0.40614  0.19513  0.47169  1.0000
  O   O10       1.0  0.40612  0.69514  0.47160  1.0000
  O   O11       1.0  0.73949  0.19516  0.47165  1.0000
  O   O12       1.0  0.73947  0.69511  0.47169  1.0000
  O   O13       1.0  0.07698  0.30340  0.22009  1.0000
  O   O14       1.0  0.07697  0.80347  0.21990  1.0000
  O   O15       1.0  0.41021  0.30347  0.21996  1.0000
  O   O16       1.0  0.41029  0.80339  0.22000  1.0000
  O   O17       1.0  0.74351  0.30364  0.21988  1.0000
  O   O18       1.0  0.74359  0.80349  0.21994  1.0000
  O   O19       1.0  0.06731  0.30647  0.71418  1.0000
  O   O20       1.0  0.06733  0.80640  0.71419  1.0000
  O   O21       1.0  0.40066  0.30643  0.71419  1.0000
  O   O22       1.0  0.40075  0.80633  0.71422  1.0000
  O   O23       1.0  0.73402  0.30645  0.71424  1.0000
  O   O24       1.0  0.73398  0.80638  0.71426  1.0000
  O   O25       1.0  0.08604  0.44536  0.95435  1.0000
  O   O26       1.0  0.08615  0.94539  0.95422  1.0000
  O   O27       1.0  0.41932  0.44550  0.95429  1.0000
  O   O28       1.0  0.41937  0.94539  0.95433  1.0000
  O   O29       1.0  0.75269  0.44552  0.95434  1.0000
  O   O30       1.0  0.75272  0.94542  0.95441  1.0000
  O   O31       1.0  0.09042  0.06057  0.71003  1.0000
  O   O32       1.0  0.09040  0.56063  0.71005  1.0000
  O   O33       1.0  0.42379  0.06068  0.71012  1.0000
  O   O34       1.0  0.42378  0.56067  0.71000  1.0000
  O   O35       1.0  0.75703  0.06061  0.71003  1.0000
  O   O36       1.0  0.75700  0.56056  0.71005  1.0000
  O   O37       1.0  0.09532  0.05377  0.20997  1.0000
  O   O38       1.0  0.09533  0.55377  0.21002  1.0000
  O   O39       1.0  0.42863  0.05374  0.20992  1.0000
  O   O40       1.0  0.42861  0.55372  0.20994  1.0000
  O   O41       1.0  0.76203  0.05386  0.21006  1.0000
  O   O42       1.0  0.76201  0.55382  0.21006  1.0000
  O   O43       1.0  0.08967  0.44141  0.45673  1.0000
  O   O44       1.0  0.08979  0.94129  0.45657  1.0000
  O   O45       1.0  0.42303  0.44130  0.45656  1.0000
  O   O46       1.0  0.42302  0.94143  0.45671  1.0000
  O   O47       1.0  0.75644  0.44134  0.45656  1.0000
  O   O48       1.0  0.75635  0.94137  0.45665  1.0000
  O   O49       1.0  0.24213  0.44273  0.79782  1.0000
  O   O50       1.0  0.24224  0.94273  0.79777  1.0000
  O   O51       1.0  0.57543  0.44272  0.79780  1.0000
  O   O52       1.0  0.57546  0.94269  0.79791  1.0000
  O   O53       1.0  0.90876  0.44277  0.79784  1.0000
  O   O54       1.0  0.90878  0.94274  0.79783  1.0000
  O   O55       1.0  0.24889  0.44403  0.29468  1.0000
  O   O56       1.0  0.24898  0.94410  0.29460  1.0000
  O   O57       1.0  0.58224  0.44406  0.29450  1.0000
  O   O58       1.0  0.58218  0.94398  0.29469  1.0000
  O   O59       1.0  0.91566  0.44412  0.29457  1.0000
  O   O60       1.0  0.91565  0.94411  0.29464  1.0000
  O   O61       1.0  0.24568  0.05556  0.55047  1.0000
  O   O62       1.0  0.24575  0.55557  0.55044  1.0000
  O   O63       1.0  0.57894  0.05568  0.55051  1.0000
  O   O64       1.0  0.57898  0.55558  0.55036  1.0000
  O   O65       1.0  0.91231  0.05555  0.55063  1.0000
  O   O66       1.0  0.91232  0.55557  0.55050  1.0000
  O   O67       1.0  0.23728  0.05798  0.03306  1.0000
  O   O68       1.0  0.23720  0.55798  0.03312  1.0000
  O   O69       1.0  0.57061  0.05798  0.03317  1.0000
  O   O70       1.0  0.57056  0.55799  0.03306  1.0000
  O   O71       1.0  0.90392  0.05802  0.03304  1.0000
  O   O72       1.0  0.90386  0.55813  0.03303  1.0000
  O   O73       1.0  0.26413  0.30824  0.03261  1.0000
  O   O74       1.0  0.26415  0.80820  0.03260  1.0000
  O   O75       1.0  0.59749  0.30828  0.03265  1.0000
  O   O76       1.0  0.59750  0.80821  0.03269  1.0000
  O   O77       1.0  0.93087  0.30835  0.03272  1.0000
  O   O78       1.0  0.93089  0.80829  0.03266  1.0000
  O   O79       1.0  0.25811  0.30123  0.53364  1.0000
  O   O80       1.0  0.25819  0.80126  0.53365  1.0000
  O   O81       1.0  0.59152  0.30136  0.53364  1.0000
  O   O82       1.0  0.59143  0.80122  0.53362  1.0000
  O   O83       1.0  0.92476  0.30116  0.53358  1.0000
  O   O84       1.0  0.92483  0.80128  0.53358  1.0000
  O   O85       1.0  0.25971  0.19864  0.28723  1.0000
  O   O86       1.0  0.25961  0.69879  0.28721  1.0000
  O   O87       1.0  0.59301  0.19866  0.28730  1.0000
  O   O88       1.0  0.59305  0.69863  0.28725  1.0000
  O   O89       1.0  0.92628  0.19882  0.28725  1.0000
  O   O90       1.0  0.92638  0.69873  0.28722  1.0000
  O   O91       1.0  0.25412  0.19252  0.78774  1.0000
  O   O92       1.0  0.25405  0.69256  0.78764  1.0000
  O   O93       1.0  0.58749  0.19249  0.78776  1.0000
  O   O94       1.0  0.58739  0.69251  0.78768  1.0000
  O   O95       1.0  0.92069  0.19262  0.78769  1.0000
  O   O96       1.0  0.92062  0.69265  0.78751  1.0000
