data_image0
_chemical_formula_structural       Ta24Ga24O96
_chemical_formula_sum              "Ta24 Ga24 O96"
_cell_length_a       13.9138
_cell_length_b       9.8996
_cell_length_c       11.1595
_cell_angle_alpha    90.0008
_cell_angle_beta     90.0185
_cell_angle_gamma    89.9994

_space_group_name_H-M_alt    "P 1"
_space_group_IT_number       1

loop_
  _space_group_symop_operation_xyz
  'x, y, z'

loop_
  _atom_site_type_symbol
  _atom_site_label
  _atom_site_symmetry_multiplicity
  _atom_site_fract_x
  _atom_site_fract_y
  _atom_site_fract_z
  _atom_site_occupancy
  Ta  Ta1       1.0  0.00039  0.00050  0.40926  1.0000
  Ta  Ta2       1.0  0.00039  0.00046  0.90928  1.0000
  Ta  Ta3       1.0  0.00042  0.50049  0.40923  1.0000
  Ta  Ta4       1.0  0.00043  0.50046  0.90924  1.0000
  Ta  Ta5       1.0  0.33371  0.00048  0.40925  1.0000
  Ta  Ta6       1.0  0.33374  0.00042  0.90919  1.0000
  Ta  Ta7       1.0  0.33372  0.50048  0.40922  1.0000
  Ta  Ta8       1.0  0.33375  0.50044  0.90918  1.0000
  Ta  Ta9       1.0  0.66703  0.00051  0.40923  1.0000
  Ta  Ta10      1.0  0.66709  0.00050  0.90924  1.0000
  Ta  Ta11      1.0  0.66705  0.50047  0.40921  1.0000
  Ta  Ta12      1.0  0.66708  0.50045  0.90923  1.0000
  Ta  Ta13      1.0  0.16706  0.00054  0.15925  1.0000
  Ta  Ta14      1.0  0.16706  0.00053  0.65927  1.0000
  Ta  Ta15      1.0  0.16705  0.50052  0.15921  1.0000
  Ta  Ta16      1.0  0.16708  0.50051  0.65924  1.0000
  Ta  Ta17      1.0  0.50037  0.00053  0.15918  1.0000
  Ta  Ta18      1.0  0.50041  0.00051  0.65919  1.0000
  Ta  Ta19      1.0  0.50038  0.50051  0.15920  1.0000
  Ta  Ta20      1.0  0.50043  0.50048  0.65920  1.0000
  Ta  Ta21      1.0  0.83371  0.00047  0.15927  1.0000
  Ta  Ta22      1.0  0.83374  0.00054  0.65927  1.0000
  Ta  Ta23      1.0  0.83371  0.50052  0.15924  1.0000
  Ta  Ta24      1.0  0.83374  0.50051  0.65924  1.0000
  Ga  Ga1       1.0  0.00025  0.25049  0.08566  1.0000
  Ga  Ga2       1.0  0.00028  0.25052  0.58568  1.0000
  Ga  Ga3       1.0  0.00024  0.75052  0.08571  1.0000
  Ga  Ga4       1.0  0.00026  0.75049  0.58568  1.0000
  Ga  Ga5       1.0  0.33358  0.25047  0.08560  1.0000
  Ga  Ga6       1.0  0.33359  0.25053  0.58565  1.0000
  Ga  Ga7       1.0  0.33358  0.75046  0.08566  1.0000
  Ga  Ga8       1.0  0.33358  0.75053  0.58567  1.0000
  Ga  Ga9       1.0  0.66693  0.25050  0.08568  1.0000
  Ga  Ga10      1.0  0.66694  0.25051  0.58563  1.0000
  Ga  Ga11      1.0  0.66692  0.75050  0.08568  1.0000
  Ga  Ga12      1.0  0.66695  0.75051  0.58564  1.0000
  Ga  Ga13      1.0  0.16693  0.25047  0.33568  1.0000
  Ga  Ga14      1.0  0.16694  0.25047  0.83567  1.0000
  Ga  Ga15      1.0  0.16693  0.75046  0.33564  1.0000
  Ga  Ga16      1.0  0.16694  0.75045  0.83565  1.0000
  Ga  Ga17      1.0  0.50026  0.25049  0.33563  1.0000
  Ga  Ga18      1.0  0.50030  0.25042  0.83560  1.0000
  Ga  Ga19      1.0  0.50024  0.75048  0.33563  1.0000
  Ga  Ga20      1.0  0.50032  0.75047  0.83563  1.0000
  Ga  Ga21      1.0  0.83361  0.25049  0.33568  1.0000
  Ga  Ga22      1.0  0.83363  0.25049  0.83567  1.0000
  Ga  Ga23      1.0  0.83364  0.75047  0.33569  1.0000
  Ga  Ga24      1.0  0.83364  0.75046  0.83569  1.0000
  O   O1        1.0  0.25897  0.08545  0.05779  1.0000
  O   O2        1.0  0.25896  0.08556  0.55783  1.0000
  O   O3        1.0  0.25898  0.58550  0.05782  1.0000
  O   O4        1.0  0.25900  0.58556  0.55785  1.0000
  O   O5        1.0  0.59232  0.08552  0.05780  1.0000
  O   O6        1.0  0.59232  0.08559  0.55781  1.0000
  O   O7        1.0  0.59233  0.58550  0.05781  1.0000
  O   O8        1.0  0.59230  0.58555  0.55777  1.0000
  O   O9        1.0  0.92561  0.08555  0.05789  1.0000
  O   O10       1.0  0.92566  0.08557  0.55788  1.0000
  O   O11       1.0  0.92564  0.58552  0.05784  1.0000
  O   O12       1.0  0.92566  0.58555  0.55784  1.0000
  O   O13       1.0  0.25737  0.33889  0.44603  1.0000
  O   O14       1.0  0.25737  0.33881  0.94599  1.0000
  O   O15       1.0  0.25734  0.83889  0.44604  1.0000
  O   O16       1.0  0.25734  0.83882  0.94603  1.0000
  O   O17       1.0  0.59067  0.33888  0.44602  1.0000
  O   O18       1.0  0.59068  0.33882  0.94600  1.0000
  O   O19       1.0  0.59064  0.83892  0.44603  1.0000
  O   O20       1.0  0.59070  0.83884  0.94600  1.0000
  O   O21       1.0  0.92405  0.33890  0.44606  1.0000
  O   O22       1.0  0.92403  0.33886  0.94606  1.0000
  O   O23       1.0  0.92402  0.83887  0.44606  1.0000
  O   O24       1.0  0.92398  0.83889  0.94612  1.0000
  O   O25       1.0  0.24340  0.33890  0.19606  1.0000
  O   O26       1.0  0.24346  0.33895  0.69604  1.0000
  O   O27       1.0  0.24342  0.83890  0.19608  1.0000
  O   O28       1.0  0.24348  0.83899  0.69614  1.0000
  O   O29       1.0  0.57673  0.33891  0.19604  1.0000
  O   O30       1.0  0.57680  0.33893  0.69607  1.0000
  O   O31       1.0  0.57671  0.83891  0.19607  1.0000
  O   O32       1.0  0.57680  0.83888  0.69604  1.0000
  O   O33       1.0  0.91005  0.33893  0.19611  1.0000
  O   O34       1.0  0.91013  0.33896  0.69611  1.0000
  O   O35       1.0  0.91006  0.83884  0.19616  1.0000
  O   O36       1.0  0.91012  0.83894  0.69617  1.0000
  O   O37       1.0  0.24181  0.08560  0.30783  1.0000
  O   O38       1.0  0.24185  0.08568  0.80783  1.0000
  O   O39       1.0  0.24182  0.58561  0.30781  1.0000
  O   O40       1.0  0.24184  0.58564  0.80781  1.0000
  O   O41       1.0  0.57513  0.08565  0.30779  1.0000
  O   O42       1.0  0.57521  0.08560  0.80777  1.0000
  O   O43       1.0  0.57515  0.58565  0.30781  1.0000
  O   O44       1.0  0.57521  0.58565  0.80783  1.0000
  O   O45       1.0  0.90850  0.08566  0.30786  1.0000
  O   O46       1.0  0.90854  0.08565  0.80784  1.0000
  O   O47       1.0  0.90847  0.58563  0.30788  1.0000
  O   O48       1.0  0.90854  0.58565  0.80781  1.0000
  O   O49       1.0  0.09069  0.16215  0.19602  1.0000
  O   O50       1.0  0.09071  0.16216  0.69602  1.0000
  O   O51       1.0  0.09066  0.66213  0.19604  1.0000
  O   O52       1.0  0.09070  0.66215  0.69603  1.0000
  O   O53       1.0  0.42400  0.16213  0.19596  1.0000
  O   O54       1.0  0.42407  0.16214  0.69596  1.0000
  O   O55       1.0  0.42399  0.66213  0.19598  1.0000
  O   O56       1.0  0.42409  0.66213  0.69603  1.0000
  O   O57       1.0  0.75734  0.16210  0.19606  1.0000
  O   O58       1.0  0.75740  0.16221  0.69602  1.0000
  O   O59       1.0  0.75731  0.66212  0.19606  1.0000
  O   O60       1.0  0.75740  0.66215  0.69600  1.0000
  O   O61       1.0  0.09233  0.41545  0.30787  1.0000
  O   O62       1.0  0.09232  0.41547  0.80780  1.0000
  O   O63       1.0  0.09229  0.91546  0.30786  1.0000
  O   O64       1.0  0.09234  0.91544  0.80789  1.0000
  O   O65       1.0  0.42564  0.41549  0.30779  1.0000
  O   O66       1.0  0.42568  0.41541  0.80781  1.0000
  O   O67       1.0  0.42562  0.91548  0.30780  1.0000
  O   O68       1.0  0.42567  0.91545  0.80776  1.0000
  O   O69       1.0  0.75897  0.41544  0.30784  1.0000
  O   O70       1.0  0.75900  0.41547  0.80784  1.0000
  O   O71       1.0  0.75897  0.91545  0.30784  1.0000
  O   O72       1.0  0.75898  0.91546  0.80784  1.0000
  O   O73       1.0  0.07515  0.41532  0.05784  1.0000
  O   O74       1.0  0.07519  0.41538  0.55783  1.0000
  O   O75       1.0  0.07517  0.91531  0.05785  1.0000
  O   O76       1.0  0.07517  0.91537  0.55787  1.0000
  O   O77       1.0  0.40851  0.41532  0.05779  1.0000
  O   O78       1.0  0.40853  0.41535  0.55781  1.0000
  O   O79       1.0  0.40849  0.91534  0.05776  1.0000
  O   O80       1.0  0.40849  0.91535  0.55781  1.0000
  O   O81       1.0  0.74183  0.41534  0.05782  1.0000
  O   O82       1.0  0.74182  0.41537  0.55782  1.0000
  O   O83       1.0  0.74182  0.91533  0.05784  1.0000
  O   O84       1.0  0.74185  0.91540  0.55783  1.0000
  O   O85       1.0  0.07675  0.16207  0.44606  1.0000
  O   O86       1.0  0.07671  0.16207  0.94607  1.0000
  O   O87       1.0  0.07676  0.66212  0.44607  1.0000
  O   O88       1.0  0.07677  0.66206  0.94608  1.0000
  O   O89       1.0  0.41007  0.16209  0.44599  1.0000
  O   O90       1.0  0.41009  0.16203  0.94602  1.0000
  O   O91       1.0  0.41006  0.66213  0.44604  1.0000
  O   O92       1.0  0.41007  0.66204  0.94606  1.0000
  O   O93       1.0  0.74340  0.16213  0.44607  1.0000
  O   O94       1.0  0.74346  0.16205  0.94607  1.0000
  O   O95       1.0  0.74338  0.66211  0.44610  1.0000
  O   O96       1.0  0.74345  0.66206  0.94605  1.0000
