data_image0
_chemical_formula_structural       Li24Y24Zr8O64
_chemical_formula_sum              "Li24 Y24 Zr8 O64"
_cell_length_a       12.3384
_cell_length_b       10.5674
_cell_length_c       12.1386
_cell_angle_alpha    89.996
_cell_angle_beta     89.9991
_cell_angle_gamma    90.0049

_space_group_name_H-M_alt    "P 1"
_space_group_IT_number       1

loop_
  _space_group_symop_operation_xyz
  'x, y, z'

loop_
  _atom_site_type_symbol
  _atom_site_label
  _atom_site_symmetry_multiplicity
  _atom_site_fract_x
  _atom_site_fract_y
  _atom_site_fract_z
  _atom_site_occupancy
  Li  Li1       1.0  0.12534  0.75032  0.12907  1.0000
  Li  Li2       1.0  0.12546  0.75020  0.62916  1.0000
  Li  Li3       1.0  0.37534  0.25047  0.12915  1.0000
  Li  Li4       1.0  0.37539  0.25046  0.62903  1.0000
  Li  Li5       1.0  0.62545  0.75070  0.12926  1.0000
  Li  Li6       1.0  0.62546  0.75034  0.62906  1.0000
  Li  Li7       1.0  0.87551  0.25029  0.12915  1.0000
  Li  Li8       1.0  0.87550  0.25019  0.62926  1.0000
  Li  Li9       1.0  0.00039  0.00056  0.25042  1.0000
  Li  Li10      1.0  0.00033  0.00037  0.75038  1.0000
  Li  Li11      1.0  0.25039  0.50029  0.25038  1.0000
  Li  Li12      1.0  0.25047  0.50042  0.75039  1.0000
  Li  Li13      1.0  0.50039  0.00057  0.25033  1.0000
  Li  Li14      1.0  0.50036  0.00050  0.75038  1.0000
  Li  Li15      1.0  0.75040  0.50034  0.25034  1.0000
  Li  Li16      1.0  0.75038  0.50057  0.75034  1.0000
  Li  Li17      1.0  0.12513  0.25021  0.37169  1.0000
  Li  Li18      1.0  0.12540  0.25007  0.87166  1.0000
  Li  Li19      1.0  0.37560  0.75078  0.37161  1.0000
  Li  Li20      1.0  0.37544  0.75026  0.87162  1.0000
  Li  Li21      1.0  0.62532  0.25052  0.37176  1.0000
  Li  Li22      1.0  0.62537  0.25038  0.87176  1.0000
  Li  Li23      1.0  0.87568  0.75071  0.37168  1.0000
  Li  Li24      1.0  0.87519  0.75054  0.87163  1.0000
  Y   Y1        1.0  0.12544  0.25044  0.12379  1.0000
  Y   Y2        1.0  0.12546  0.25052  0.62381  1.0000
  Y   Y3        1.0  0.37539  0.75042  0.12380  1.0000
  Y   Y4        1.0  0.37541  0.75049  0.62380  1.0000
  Y   Y5        1.0  0.62542  0.25040  0.12374  1.0000
  Y   Y6        1.0  0.62551  0.25048  0.62379  1.0000
  Y   Y7        1.0  0.87539  0.75042  0.12378  1.0000
  Y   Y8        1.0  0.87544  0.75050  0.62379  1.0000
  Y   Y9        1.0  0.25047  0.00044  0.25039  1.0000
  Y   Y10       1.0  0.25041  0.00046  0.75042  1.0000
  Y   Y11       1.0  0.50044  0.50047  0.25024  1.0000
  Y   Y12       1.0  0.50042  0.50038  0.75037  1.0000
  Y   Y13       1.0  0.75038  0.00048  0.25045  1.0000
  Y   Y14       1.0  0.75045  0.00045  0.75035  1.0000
  Y   Y15       1.0  0.00042  0.50048  0.25044  1.0000
  Y   Y16       1.0  0.00044  0.50043  0.75035  1.0000
  Y   Y17       1.0  0.12546  0.75040  0.37702  1.0000
  Y   Y18       1.0  0.12541  0.75044  0.87707  1.0000
  Y   Y19       1.0  0.37547  0.25041  0.37706  1.0000
  Y   Y20       1.0  0.37543  0.25046  0.87698  1.0000
  Y   Y21       1.0  0.62545  0.75041  0.37697  1.0000
  Y   Y22       1.0  0.62538  0.75044  0.87697  1.0000
  Y   Y23       1.0  0.87540  0.25042  0.37703  1.0000
  Y   Y24       1.0  0.87537  0.25041  0.87702  1.0000
  Zr  Zr1       1.0  0.00043  0.00045  0.00047  1.0000
  Zr  Zr2       1.0  0.00054  0.00043  0.50036  1.0000
  Zr  Zr3       1.0  0.25036  0.50045  0.00039  1.0000
  Zr  Zr4       1.0  0.25054  0.50046  0.50035  1.0000
  Zr  Zr5       1.0  0.50041  0.00039  0.00032  1.0000
  Zr  Zr6       1.0  0.50052  0.00042  0.50038  1.0000
  Zr  Zr7       1.0  0.75044  0.50047  0.00033  1.0000
  Zr  Zr8       1.0  0.75044  0.50050  0.50034  1.0000
  O   O1        1.0  0.11277  0.03121  0.12895  1.0000
  O   O2        1.0  0.11274  0.03104  0.62896  1.0000
  O   O3        1.0  0.36268  0.53107  0.12892  1.0000
  O   O4        1.0  0.36272  0.53100  0.62892  1.0000
  O   O5        1.0  0.61270  0.03105  0.12888  1.0000
  O   O6        1.0  0.61272  0.03113  0.62897  1.0000
  O   O7        1.0  0.86271  0.53117  0.12893  1.0000
  O   O8        1.0  0.86269  0.53134  0.62892  1.0000
  O   O9        1.0  0.38814  0.96965  0.12891  1.0000
  O   O10       1.0  0.38813  0.96974  0.62892  1.0000
  O   O11       1.0  0.63818  0.46984  0.12888  1.0000
  O   O12       1.0  0.63822  0.46974  0.62899  1.0000
  O   O13       1.0  0.88809  0.96979  0.12902  1.0000
  O   O14       1.0  0.88816  0.96973  0.62889  1.0000
  O   O15       1.0  0.13811  0.46974  0.12895  1.0000
  O   O16       1.0  0.13813  0.46975  0.62894  1.0000
  O   O17       1.0  0.25038  0.29640  0.00031  1.0000
  O   O18       1.0  0.25067  0.29641  0.50067  1.0000
  O   O19       1.0  0.50036  0.79634  0.00030  1.0000
  O   O20       1.0  0.50035  0.79637  0.50027  1.0000
  O   O21       1.0  0.75024  0.29635  0.00020  1.0000
  O   O22       1.0  0.75042  0.29633  0.50039  1.0000
  O   O23       1.0  0.00058  0.79640  0.00059  1.0000
  O   O24       1.0  0.00037  0.79634  0.50026  1.0000
  O   O25       1.0  0.25031  0.70458  0.00055  1.0000
  O   O26       1.0  0.25034  0.70458  0.50053  1.0000
  O   O27       1.0  0.50044  0.20457  0.00033  1.0000
  O   O28       1.0  0.50067  0.20457  0.50026  1.0000
  O   O29       1.0  0.75051  0.70465  0.00023  1.0000
  O   O30       1.0  0.75041  0.70466  0.50041  1.0000
  O   O31       1.0  0.00034  0.20454  0.00045  1.0000
  O   O32       1.0  0.00058  0.20459  0.50033  1.0000
  O   O33       1.0  0.25046  0.78576  0.25049  1.0000
  O   O34       1.0  0.25052  0.78570  0.75055  1.0000
  O   O35       1.0  0.50043  0.28565  0.25033  1.0000
  O   O36       1.0  0.50047  0.28570  0.75037  1.0000
  O   O37       1.0  0.75037  0.78572  0.25033  1.0000
  O   O38       1.0  0.75039  0.78569  0.75040  1.0000
  O   O39       1.0  0.00044  0.28570  0.25041  1.0000
  O   O40       1.0  0.00041  0.28566  0.75041  1.0000
  O   O41       1.0  0.25041  0.21524  0.25045  1.0000
  O   O42       1.0  0.25043  0.21519  0.75045  1.0000
  O   O43       1.0  0.50037  0.71517  0.25039  1.0000
  O   O44       1.0  0.50041  0.71510  0.75035  1.0000
  O   O45       1.0  0.75049  0.21526  0.25033  1.0000
  O   O46       1.0  0.75058  0.21514  0.75031  1.0000
  O   O47       1.0  0.00037  0.71514  0.25048  1.0000
  O   O48       1.0  0.00047  0.71524  0.75039  1.0000
  O   O49       1.0  0.11276  0.96984  0.37184  1.0000
  O   O50       1.0  0.11272  0.96984  0.87189  1.0000
  O   O51       1.0  0.36277  0.46966  0.37179  1.0000
  O   O52       1.0  0.36266  0.46979  0.87178  1.0000
  O   O53       1.0  0.61270  0.96970  0.37177  1.0000
  O   O54       1.0  0.61273  0.96981  0.87179  1.0000
  O   O55       1.0  0.86269  0.46970  0.37185  1.0000
  O   O56       1.0  0.86271  0.46972  0.87180  1.0000
  O   O57       1.0  0.38818  0.03108  0.37188  1.0000
  O   O58       1.0  0.38810  0.03112  0.87182  1.0000
  O   O59       1.0  0.63813  0.53120  0.37183  1.0000
  O   O60       1.0  0.63806  0.53115  0.87193  1.0000
  O   O61       1.0  0.88809  0.03110  0.37193  1.0000
  O   O62       1.0  0.88810  0.03098  0.87189  1.0000
  O   O63       1.0  0.13812  0.53120  0.37193  1.0000
  O   O64       1.0  0.13812  0.53116  0.87184  1.0000
