data_image0
_chemical_formula_structural       Rb54O54
_chemical_formula_sum              "Rb54 O54"
_cell_length_a       11.4382
_cell_length_b       14.0656
_cell_length_c       15.2568
_cell_angle_alpha    77.945
_cell_angle_beta     89.6543
_cell_angle_gamma    85.9718

_space_group_name_H-M_alt    "P 1"
_space_group_IT_number       1

loop_
  _space_group_symop_operation_xyz
  'x, y, z'

loop_
  _atom_site_type_symbol
  _atom_site_label
  _atom_site_symmetry_multiplicity
  _atom_site_fract_x
  _atom_site_fract_y
  _atom_site_fract_z
  _atom_site_occupancy
  Rb  Rb1       1.0  0.27639  0.08585  0.17801  1.0000
  Rb  Rb2       1.0  0.27696  0.08571  0.51120  1.0000
  Rb  Rb3       1.0  0.27688  0.08596  0.84439  1.0000
  Rb  Rb4       1.0  0.38785  0.41915  0.21471  1.0000
  Rb  Rb5       1.0  0.38804  0.41905  0.54820  1.0000
  Rb  Rb6       1.0  0.38782  0.41910  0.88144  1.0000
  Rb  Rb7       1.0  0.49896  0.75258  0.25181  1.0000
  Rb  Rb8       1.0  0.49909  0.75251  0.58526  1.0000
  Rb  Rb9       1.0  0.49870  0.75250  0.91865  1.0000
  Rb  Rb10      1.0  0.60997  0.08582  0.28889  1.0000
  Rb  Rb11      1.0  0.61013  0.08577  0.62229  1.0000
  Rb  Rb12      1.0  0.61008  0.08584  0.95550  1.0000
  Rb  Rb13      1.0  0.72112  0.41920  0.32589  1.0000
  Rb  Rb14      1.0  0.72126  0.41926  0.65924  1.0000
  Rb  Rb15      1.0  0.72116  0.41913  0.99243  1.0000
  Rb  Rb16      1.0  0.83227  0.75265  0.36289  1.0000
  Rb  Rb17      1.0  0.83220  0.75238  0.69637  1.0000
  Rb  Rb18      1.0  0.83220  0.75256  0.02969  1.0000
  Rb  Rb19      1.0  0.94345  0.08567  0.40012  1.0000
  Rb  Rb20      1.0  0.94336  0.08581  0.73344  1.0000
  Rb  Rb21      1.0  0.94344  0.08580  0.06665  1.0000
  Rb  Rb22      1.0  0.05454  0.41918  0.43712  1.0000
  Rb  Rb23      1.0  0.05468  0.41919  0.77028  1.0000
  Rb  Rb24      1.0  0.05446  0.41908  0.10371  1.0000
  Rb  Rb25      1.0  0.16575  0.75224  0.47423  1.0000
  Rb  Rb26      1.0  0.16556  0.75243  0.80747  1.0000
  Rb  Rb27      1.0  0.16561  0.75241  0.14083  1.0000
  Rb  Rb28      1.0  0.16842  0.24834  0.30425  1.0000
  Rb  Rb29      1.0  0.16847  0.24810  0.63751  1.0000
  Rb  Rb30      1.0  0.16833  0.24820  0.97093  1.0000
  Rb  Rb31      1.0  0.27979  0.58149  0.34129  1.0000
  Rb  Rb32      1.0  0.27980  0.58155  0.67452  1.0000
  Rb  Rb33      1.0  0.27940  0.58160  0.00781  1.0000
  Rb  Rb34      1.0  0.39055  0.91477  0.37838  1.0000
  Rb  Rb35      1.0  0.39050  0.91489  0.71170  1.0000
  Rb  Rb36      1.0  0.39047  0.91499  0.04496  1.0000
  Rb  Rb37      1.0  0.50193  0.24834  0.41520  1.0000
  Rb  Rb38      1.0  0.50184  0.24838  0.74850  1.0000
  Rb  Rb39      1.0  0.50187  0.24822  0.08184  1.0000
  Rb  Rb40      1.0  0.61292  0.58178  0.45225  1.0000
  Rb  Rb41      1.0  0.61280  0.58156  0.78565  1.0000
  Rb  Rb42      1.0  0.61278  0.58136  0.11893  1.0000
  Rb  Rb43      1.0  0.72420  0.91486  0.48944  1.0000
  Rb  Rb44      1.0  0.72386  0.91484  0.82268  1.0000
  Rb  Rb45      1.0  0.72402  0.91498  0.15592  1.0000
  Rb  Rb46      1.0  0.83521  0.24827  0.52636  1.0000
  Rb  Rb47      1.0  0.83541  0.24838  0.85963  1.0000
  Rb  Rb48      1.0  0.83499  0.24821  0.19316  1.0000
  Rb  Rb49      1.0  0.94632  0.58151  0.56333  1.0000
  Rb  Rb50      1.0  0.94640  0.58164  0.89677  1.0000
  Rb  Rb51      1.0  0.94610  0.58153  0.22998  1.0000
  Rb  Rb52      1.0  0.05737  0.91486  0.60052  1.0000
  Rb  Rb53      1.0  0.05730  0.91496  0.93372  1.0000
  Rb  Rb54      1.0  0.05746  0.91487  0.26724  1.0000
  O   O1        1.0  0.07004  0.20966  0.14747  1.0000
  O   O2        1.0  0.07027  0.20954  0.48080  1.0000
  O   O3        1.0  0.07024  0.20980  0.81425  1.0000
  O   O4        1.0  0.18133  0.54304  0.18446  1.0000
  O   O5        1.0  0.18149  0.54286  0.51793  1.0000
  O   O6        1.0  0.18144  0.54296  0.85108  1.0000
  O   O7        1.0  0.29236  0.87632  0.22154  1.0000
  O   O8        1.0  0.29244  0.87633  0.55498  1.0000
  O   O9        1.0  0.29221  0.87642  0.88827  1.0000
  O   O10       1.0  0.40344  0.20980  0.25852  1.0000
  O   O11       1.0  0.40365  0.20974  0.59179  1.0000
  O   O12       1.0  0.40353  0.20983  0.92533  1.0000
  O   O13       1.0  0.51462  0.54314  0.29549  1.0000
  O   O14       1.0  0.51466  0.54318  0.62893  1.0000
  O   O15       1.0  0.51445  0.54320  0.96220  1.0000
  O   O16       1.0  0.62559  0.87660  0.33275  1.0000
  O   O17       1.0  0.62556  0.87651  0.66618  1.0000
  O   O18       1.0  0.62560  0.87641  0.99943  1.0000
  O   O19       1.0  0.73686  0.20964  0.36972  1.0000
  O   O20       1.0  0.73683  0.20965  0.70309  1.0000
  O   O21       1.0  0.73693  0.20964  0.03624  1.0000
  O   O22       1.0  0.84793  0.54327  0.40659  1.0000
  O   O23       1.0  0.84799  0.54339  0.74001  1.0000
  O   O24       1.0  0.84779  0.54308  0.07324  1.0000
  O   O25       1.0  0.95915  0.87627  0.44387  1.0000
  O   O26       1.0  0.95896  0.87625  0.77699  1.0000
  O   O27       1.0  0.95907  0.87646  0.11052  1.0000
  O   O28       1.0  0.04153  0.12448  0.22354  1.0000
  O   O29       1.0  0.04175  0.12420  0.55673  1.0000
  O   O30       1.0  0.04191  0.12421  0.88998  1.0000
  O   O31       1.0  0.15277  0.45780  0.26049  1.0000
  O   O32       1.0  0.15302  0.45747  0.59384  1.0000
  O   O33       1.0  0.15280  0.45770  0.92705  1.0000
  O   O34       1.0  0.26393  0.79092  0.29751  1.0000
  O   O35       1.0  0.26406  0.79090  0.63086  1.0000
  O   O36       1.0  0.26370  0.79101  0.96419  1.0000
  O   O37       1.0  0.37497  0.12443  0.33446  1.0000
  O   O38       1.0  0.37514  0.12445  0.66780  1.0000
  O   O39       1.0  0.37510  0.12435  0.00115  1.0000
  O   O40       1.0  0.48623  0.45772  0.37140  1.0000
  O   O41       1.0  0.48630  0.45763  0.70473  1.0000
  O   O42       1.0  0.48607  0.45771  0.03806  1.0000
  O   O43       1.0  0.59732  0.79100  0.40853  1.0000
  O   O44       1.0  0.59722  0.79083  0.74186  1.0000
  O   O45       1.0  0.59729  0.79090  0.07529  1.0000
  O   O46       1.0  0.70838  0.12432  0.44567  1.0000
  O   O47       1.0  0.70831  0.12438  0.77909  1.0000
  O   O48       1.0  0.70834  0.12433  0.11220  1.0000
  O   O49       1.0  0.81945  0.45781  0.48243  1.0000
  O   O50       1.0  0.81967  0.45789  0.81584  1.0000
  O   O51       1.0  0.81944  0.45759  0.14908  1.0000
  O   O52       1.0  0.93068  0.79073  0.51963  1.0000
  O   O53       1.0  0.93040  0.79109  0.85309  1.0000
  O   O54       1.0  0.93051  0.79108  0.18640  1.0000
