data_image0
_chemical_formula_structural       Rb64Si16O64
_chemical_formula_sum              "Rb64 Si16 O64"
_cell_length_a       13.2025
_cell_length_b       10.6715
_cell_length_c       20.3057
_cell_angle_alpha    95.963
_cell_angle_beta     89.9941
_cell_angle_gamma    89.9957

_space_group_name_H-M_alt    "P 1"
_space_group_IT_number       1

loop_
  _space_group_symop_operation_xyz
  'x, y, z'

loop_
  _atom_site_type_symbol
  _atom_site_label
  _atom_site_symmetry_multiplicity
  _atom_site_fract_x
  _atom_site_fract_y
  _atom_site_fract_z
  _atom_site_occupancy
  Rb  Rb1       1.0  0.28958  0.32573  0.03740  1.0000
  Rb  Rb2       1.0  0.28985  0.82571  0.53732  1.0000
  Rb  Rb3       1.0  0.78984  0.32556  0.03720  1.0000
  Rb  Rb4       1.0  0.78983  0.82550  0.53736  1.0000
  Rb  Rb5       1.0  0.06215  0.50526  0.07501  1.0000
  Rb  Rb6       1.0  0.06218  0.00496  0.57493  1.0000
  Rb  Rb7       1.0  0.56236  0.50476  0.07498  1.0000
  Rb  Rb8       1.0  0.56242  0.00486  0.57490  1.0000
  Rb  Rb9       1.0  0.46089  0.82554  0.03730  1.0000
  Rb  Rb10      1.0  0.46114  0.32561  0.53730  1.0000
  Rb  Rb11      1.0  0.96101  0.82567  0.03741  1.0000
  Rb  Rb12      1.0  0.96094  0.32549  0.53725  1.0000
  Rb  Rb13      1.0  0.16281  0.29460  0.18959  1.0000
  Rb  Rb14      1.0  0.16292  0.79478  0.68952  1.0000
  Rb  Rb15      1.0  0.66283  0.29427  0.18949  1.0000
  Rb  Rb16      1.0  0.66283  0.79446  0.68955  1.0000
  Rb  Rb17      1.0  0.41443  0.42476  0.20605  1.0000
  Rb  Rb18      1.0  0.41458  0.92498  0.70600  1.0000
  Rb  Rb19      1.0  0.91436  0.42486  0.20608  1.0000
  Rb  Rb20      1.0  0.91451  0.92481  0.70612  1.0000
  Rb  Rb21      1.0  0.18856  0.00494  0.07497  1.0000
  Rb  Rb22      1.0  0.18839  0.50503  0.57493  1.0000
  Rb  Rb23      1.0  0.68850  0.00484  0.07491  1.0000
  Rb  Rb24      1.0  0.68859  0.50496  0.57494  1.0000
  Rb  Rb25      1.0  0.08786  0.79467  0.18963  1.0000
  Rb  Rb26      1.0  0.08798  0.29456  0.68965  1.0000
  Rb  Rb27      1.0  0.58792  0.79446  0.18958  1.0000
  Rb  Rb28      1.0  0.58787  0.29452  0.68954  1.0000
  Rb  Rb29      1.0  0.16444  0.57617  0.29448  1.0000
  Rb  Rb30      1.0  0.16451  0.07634  0.79452  1.0000
  Rb  Rb31      1.0  0.66455  0.57619  0.29441  1.0000
  Rb  Rb32      1.0  0.66447  0.07623  0.79444  1.0000
  Rb  Rb33      1.0  0.33614  0.92499  0.20611  1.0000
  Rb  Rb34      1.0  0.33623  0.42502  0.70606  1.0000
  Rb  Rb35      1.0  0.83630  0.92496  0.20610  1.0000
  Rb  Rb36      1.0  0.83638  0.42466  0.70605  1.0000
  Rb  Rb37      1.0  0.41282  0.70636  0.31102  1.0000
  Rb  Rb38      1.0  0.41279  0.20686  0.81108  1.0000
  Rb  Rb39      1.0  0.91283  0.70655  0.31094  1.0000
  Rb  Rb40      1.0  0.91294  0.20656  0.81099  1.0000
  Rb  Rb41      1.0  0.31238  0.49592  0.42555  1.0000
  Rb  Rb42      1.0  0.31223  0.99628  0.92562  1.0000
  Rb  Rb43      1.0  0.81244  0.49619  0.42562  1.0000
  Rb  Rb44      1.0  0.81234  0.99595  0.92557  1.0000
  Rb  Rb45      1.0  0.08637  0.07637  0.29450  1.0000
  Rb  Rb46      1.0  0.08652  0.57623  0.79443  1.0000
  Rb  Rb47      1.0  0.58617  0.07618  0.29445  1.0000
  Rb  Rb48      1.0  0.58628  0.57625  0.79446  1.0000
  Rb  Rb49      1.0  0.33793  0.20666  0.31100  1.0000
  Rb  Rb50      1.0  0.33805  0.70667  0.81102  1.0000
  Rb  Rb51      1.0  0.83793  0.20664  0.31095  1.0000
  Rb  Rb52      1.0  0.83797  0.70648  0.81107  1.0000
  Rb  Rb53      1.0  0.03982  0.67542  0.46322  1.0000
  Rb  Rb54      1.0  0.03977  0.17551  0.96321  1.0000
  Rb  Rb55      1.0  0.53982  0.67536  0.46312  1.0000
  Rb  Rb56      1.0  0.53961  0.17530  0.96315  1.0000
  Rb  Rb57      1.0  0.43847  0.99599  0.42561  1.0000
  Rb  Rb58      1.0  0.43849  0.49617  0.92565  1.0000
  Rb  Rb59      1.0  0.93843  0.99596  0.42559  1.0000
  Rb  Rb60      1.0  0.93859  0.49629  0.92559  1.0000
  Rb  Rb61      1.0  0.21094  0.17549  0.46325  1.0000
  Rb  Rb62      1.0  0.21112  0.67552  0.96324  1.0000
  Rb  Rb63      1.0  0.71102  0.17535  0.46315  1.0000
  Rb  Rb64      1.0  0.71097  0.67533  0.96330  1.0000
  Si  Si1       1.0  0.43983  0.13520  0.11968  1.0000
  Si  Si2       1.0  0.43994  0.63530  0.61969  1.0000
  Si  Si3       1.0  0.93989  0.13537  0.11970  1.0000
  Si  Si4       1.0  0.93996  0.63522  0.61972  1.0000
  Si  Si5       1.0  0.31077  0.63525  0.11976  1.0000
  Si  Si6       1.0  0.31082  0.13535  0.61973  1.0000
  Si  Si7       1.0  0.81081  0.63538  0.11975  1.0000
  Si  Si8       1.0  0.81082  0.13519  0.61972  1.0000
  Si  Si9       1.0  0.18997  0.86582  0.38088  1.0000
  Si  Si10      1.0  0.18995  0.36593  0.88090  1.0000
  Si  Si11      1.0  0.68990  0.86574  0.38081  1.0000
  Si  Si12      1.0  0.68991  0.36577  0.88083  1.0000
  Si  Si13      1.0  0.06077  0.36573  0.38078  1.0000
  Si  Si14      1.0  0.06087  0.86584  0.88082  1.0000
  Si  Si15      1.0  0.56091  0.36566  0.38080  1.0000
  Si  Si16      1.0  0.56086  0.86581  0.88084  1.0000
  O   O1        1.0  0.39110  0.06885  0.04969  1.0000
  O   O2        1.0  0.39124  0.56905  0.54967  1.0000
  O   O3        1.0  0.89115  0.06915  0.04967  1.0000
  O   O4        1.0  0.89138  0.56901  0.54965  1.0000
  O   O5        1.0  0.00578  0.26140  0.10382  1.0000
  O   O6        1.0  0.00590  0.76125  0.60390  1.0000
  O   O7        1.0  0.50573  0.26118  0.10384  1.0000
  O   O8        1.0  0.50592  0.76125  0.60384  1.0000
  O   O9        1.0  0.35953  0.56916  0.04970  1.0000
  O   O10       1.0  0.35954  0.06920  0.54968  1.0000
  O   O11       1.0  0.85940  0.56923  0.04965  1.0000
  O   O12       1.0  0.85945  0.06914  0.54962  1.0000
  O   O13       1.0  0.23710  0.53504  0.15582  1.0000
  O   O14       1.0  0.23715  0.03512  0.65576  1.0000
  O   O15       1.0  0.73708  0.53523  0.15583  1.0000
  O   O16       1.0  0.73726  0.03498  0.65585  1.0000
  O   O17       1.0  0.24471  0.76115  0.10392  1.0000
  O   O18       1.0  0.24483  0.26137  0.60389  1.0000
  O   O19       1.0  0.74493  0.76145  0.10399  1.0000
  O   O20       1.0  0.74479  0.26116  0.60392  1.0000
  O   O21       1.0  0.40634  0.67836  0.17081  1.0000
  O   O22       1.0  0.40640  0.17848  0.67080  1.0000
  O   O23       1.0  0.90654  0.67830  0.17073  1.0000
  O   O24       1.0  0.90652  0.17820  0.67071  1.0000
  O   O25       1.0  0.01362  0.03528  0.15579  1.0000
  O   O26       1.0  0.01357  0.53503  0.65584  1.0000
  O   O27       1.0  0.51360  0.03508  0.15572  1.0000
  O   O28       1.0  0.51356  0.53505  0.65576  1.0000
  O   O29       1.0  0.15644  0.32259  0.32977  1.0000
  O   O30       1.0  0.15655  0.82284  0.82981  1.0000
  O   O31       1.0  0.65647  0.32244  0.32974  1.0000
  O   O32       1.0  0.65643  0.82278  0.82974  1.0000
  O   O33       1.0  0.34417  0.17833  0.17069  1.0000
  O   O34       1.0  0.34436  0.67856  0.67074  1.0000
  O   O35       1.0  0.84424  0.17837  0.17076  1.0000
  O   O36       1.0  0.84423  0.67830  0.67070  1.0000
  O   O37       1.0  0.48715  0.46577  0.34476  1.0000
  O   O38       1.0  0.48723  0.96614  0.84484  1.0000
  O   O39       1.0  0.98713  0.46597  0.34472  1.0000
  O   O40       1.0  0.98723  0.96603  0.84474  1.0000
  O   O41       1.0  0.09429  0.82272  0.32990  1.0000
  O   O42       1.0  0.09432  0.32290  0.82987  1.0000
  O   O43       1.0  0.59432  0.82251  0.32977  1.0000
  O   O44       1.0  0.59429  0.32291  0.82975  1.0000
  O   O45       1.0  0.25585  0.73980  0.39672  1.0000
  O   O46       1.0  0.25595  0.23994  0.89672  1.0000
  O   O47       1.0  0.75586  0.73972  0.39661  1.0000
  O   O48       1.0  0.75578  0.23966  0.89661  1.0000
  O   O49       1.0  0.26371  0.96596  0.34482  1.0000
  O   O50       1.0  0.26366  0.46607  0.84483  1.0000
  O   O51       1.0  0.76339  0.96609  0.34474  1.0000
  O   O52       1.0  0.76360  0.46602  0.84480  1.0000
  O   O53       1.0  0.14133  0.93204  0.45094  1.0000
  O   O54       1.0  0.14128  0.43206  0.95096  1.0000
  O   O55       1.0  0.64129  0.93193  0.45088  1.0000
  O   O56       1.0  0.64115  0.43171  0.95092  1.0000
  O   O57       1.0  0.99486  0.23974  0.39664  1.0000
  O   O58       1.0  0.99487  0.73985  0.89657  1.0000
  O   O59       1.0  0.49496  0.23970  0.39668  1.0000
  O   O60       1.0  0.49487  0.73982  0.89666  1.0000
  O   O61       1.0  0.10944  0.43204  0.45079  1.0000
  O   O62       1.0  0.10951  0.93186  0.95091  1.0000
  O   O63       1.0  0.60967  0.43193  0.45081  1.0000
  O   O64       1.0  0.60959  0.93181  0.95090  1.0000
