data_image0
_chemical_formula_structural       K18Sr9Ta18O63
_chemical_formula_sum              "K18 Sr9 Ta18 O63"
_cell_length_a       11.9449
_cell_length_b       11.9448
_cell_length_c       11.2501
_cell_angle_alpha    79.8082
_cell_angle_beta     100.192
_cell_angle_gamma    89.9998

_space_group_name_H-M_alt    "P 1"
_space_group_IT_number       1

loop_
  _space_group_symop_operation_xyz
  'x, y, z'

loop_
  _atom_site_type_symbol
  _atom_site_label
  _atom_site_symmetry_multiplicity
  _atom_site_fract_x
  _atom_site_fract_y
  _atom_site_fract_z
  _atom_site_occupancy
  K   K1        1.0  0.26933  0.73152  0.61335  1.0000
  K   K2        1.0  0.60264  0.73156  0.61337  1.0000
  K   K3        1.0  0.93604  0.73147  0.61343  1.0000
  K   K4        1.0  0.26930  0.06484  0.61333  1.0000
  K   K5        1.0  0.60268  0.06483  0.61338  1.0000
  K   K6        1.0  0.93594  0.06478  0.61341  1.0000
  K   K7        1.0  0.26927  0.39818  0.61331  1.0000
  K   K8        1.0  0.60259  0.39818  0.61339  1.0000
  K   K9        1.0  0.93595  0.39816  0.61336  1.0000
  K   K10       1.0  0.06507  0.93579  0.38752  1.0000
  K   K11       1.0  0.39837  0.93579  0.38752  1.0000
  K   K12       1.0  0.73167  0.93580  0.38754  1.0000
  K   K13       1.0  0.06494  0.26909  0.38751  1.0000
  K   K14       1.0  0.39824  0.26915  0.38747  1.0000
  K   K15       1.0  0.73159  0.26916  0.38746  1.0000
  K   K16       1.0  0.06499  0.60244  0.38754  1.0000
  K   K17       1.0  0.39830  0.60250  0.38753  1.0000
  K   K18       1.0  0.73169  0.60253  0.38753  1.0000
  Sr  Sr1       1.0  0.00044  0.00032  0.00045  1.0000
  Sr  Sr2       1.0  0.33378  0.00037  0.00043  1.0000
  Sr  Sr3       1.0  0.66719  0.00036  0.00055  1.0000
  Sr  Sr4       1.0  0.00040  0.33366  0.00038  1.0000
  Sr  Sr5       1.0  0.33385  0.33372  0.00039  1.0000
  Sr  Sr6       1.0  0.66711  0.33368  0.00045  1.0000
  Sr  Sr7       1.0  0.00050  0.66698  0.00040  1.0000
  Sr  Sr8       1.0  0.33377  0.66695  0.00035  1.0000
  Sr  Sr9       1.0  0.66712  0.66694  0.00053  1.0000
  Ta  Ta1       1.0  0.19937  0.80142  0.19386  1.0000
  Ta  Ta2       1.0  0.53268  0.80141  0.19388  1.0000
  Ta  Ta3       1.0  0.86604  0.80142  0.19386  1.0000
  Ta  Ta4       1.0  0.19936  0.13476  0.19385  1.0000
  Ta  Ta5       1.0  0.53270  0.13479  0.19384  1.0000
  Ta  Ta6       1.0  0.86602  0.13474  0.19390  1.0000
  Ta  Ta7       1.0  0.19937  0.46810  0.19386  1.0000
  Ta  Ta8       1.0  0.53268  0.46810  0.19387  1.0000
  Ta  Ta9       1.0  0.86603  0.46807  0.19388  1.0000
  Ta  Ta10      1.0  0.13492  0.86589  0.80702  1.0000
  Ta  Ta11      1.0  0.46826  0.86594  0.80705  1.0000
  Ta  Ta12      1.0  0.80155  0.86590  0.80707  1.0000
  Ta  Ta13      1.0  0.13487  0.19927  0.80700  1.0000
  Ta  Ta14      1.0  0.46825  0.19926  0.80699  1.0000
  Ta  Ta15      1.0  0.80154  0.19925  0.80700  1.0000
  Ta  Ta16      1.0  0.13489  0.53255  0.80703  1.0000
  Ta  Ta17      1.0  0.46821  0.53257  0.80697  1.0000
  Ta  Ta18      1.0  0.80152  0.53256  0.80702  1.0000
  O   O1        1.0  0.16721  0.83372  0.00043  1.0000
  O   O2        1.0  0.50049  0.83368  0.00044  1.0000
  O   O3        1.0  0.83380  0.83365  0.00048  1.0000
  O   O4        1.0  0.16706  0.16695  0.00041  1.0000
  O   O5        1.0  0.50047  0.16708  0.00039  1.0000
  O   O6        1.0  0.83378  0.16705  0.00047  1.0000
  O   O7        1.0  0.16700  0.50036  0.00040  1.0000
  O   O8        1.0  0.50047  0.50027  0.00044  1.0000
  O   O9        1.0  0.83383  0.50029  0.00040  1.0000
  O   O10       1.0  0.10643  0.89433  0.63633  1.0000
  O   O11       1.0  0.43984  0.89438  0.63637  1.0000
  O   O12       1.0  0.77315  0.89427  0.63640  1.0000
  O   O13       1.0  0.10640  0.22772  0.63634  1.0000
  O   O14       1.0  0.43981  0.22773  0.63632  1.0000
  O   O15       1.0  0.77309  0.22760  0.63633  1.0000
  O   O16       1.0  0.10652  0.56095  0.63637  1.0000
  O   O17       1.0  0.43978  0.56101  0.63630  1.0000
  O   O18       1.0  0.77302  0.56107  0.63635  1.0000
  O   O19       1.0  0.22785  0.77293  0.36453  1.0000
  O   O20       1.0  0.56113  0.77302  0.36456  1.0000
  O   O21       1.0  0.89455  0.77297  0.36454  1.0000
  O   O22       1.0  0.22785  0.10633  0.36454  1.0000
  O   O23       1.0  0.56114  0.10633  0.36450  1.0000
  O   O24       1.0  0.89440  0.10630  0.36459  1.0000
  O   O25       1.0  0.22780  0.43963  0.36453  1.0000
  O   O26       1.0  0.56107  0.43971  0.36454  1.0000
  O   O27       1.0  0.89443  0.43960  0.36455  1.0000
  O   O28       1.0  0.13784  0.02962  0.82482  1.0000
  O   O29       1.0  0.47115  0.02960  0.82493  1.0000
  O   O30       1.0  0.80458  0.02960  0.82495  1.0000
  O   O31       1.0  0.13794  0.36292  0.82493  1.0000
  O   O32       1.0  0.47120  0.36295  0.82483  1.0000
  O   O33       1.0  0.80445  0.36288  0.82488  1.0000
  O   O34       1.0  0.13787  0.69623  0.82487  1.0000
  O   O35       1.0  0.47130  0.69626  0.82490  1.0000
  O   O36       1.0  0.80449  0.69623  0.82496  1.0000
  O   O37       1.0  0.30456  0.86292  0.82488  1.0000
  O   O38       1.0  0.63790  0.86301  0.82496  1.0000
  O   O39       1.0  0.97123  0.86284  0.82497  1.0000
  O   O40       1.0  0.30455  0.19628  0.82490  1.0000
  O   O41       1.0  0.63789  0.19623  0.82490  1.0000
  O   O42       1.0  0.97116  0.19630  0.82492  1.0000
  O   O43       1.0  0.30457  0.52960  0.82501  1.0000
  O   O44       1.0  0.63788  0.52953  0.82498  1.0000
  O   O45       1.0  0.97116  0.52951  0.82478  1.0000
  O   O46       1.0  0.02972  0.13776  0.17606  1.0000
  O   O47       1.0  0.36304  0.13781  0.17596  1.0000
  O   O48       1.0  0.69638  0.13778  0.17601  1.0000
  O   O49       1.0  0.02971  0.47112  0.17603  1.0000
  O   O50       1.0  0.36302  0.47115  0.17589  1.0000
  O   O51       1.0  0.69636  0.47109  0.17595  1.0000
  O   O52       1.0  0.02974  0.80431  0.17595  1.0000
  O   O53       1.0  0.36304  0.80438  0.17597  1.0000
  O   O54       1.0  0.69640  0.80446  0.17607  1.0000
  O   O55       1.0  0.19635  0.97106  0.17599  1.0000
  O   O56       1.0  0.52968  0.97111  0.17599  1.0000
  O   O57       1.0  0.86307  0.97109  0.17591  1.0000
  O   O58       1.0  0.19636  0.30444  0.17590  1.0000
  O   O59       1.0  0.52969  0.30444  0.17599  1.0000
  O   O60       1.0  0.86307  0.30438  0.17601  1.0000
  O   O61       1.0  0.19638  0.63777  0.17589  1.0000
  O   O62       1.0  0.52974  0.63776  0.17587  1.0000
  O   O63       1.0  0.86297  0.63775  0.17595  1.0000
