data_image0
_chemical_formula_structural       Zr32Bi32O128
_chemical_formula_sum              "Zr32 Bi32 O128"
_cell_length_a       10.7576
_cell_length_b       15.4472
_cell_length_c       15.4459
_cell_angle_alpha    95.0833
_cell_angle_beta     88.6344
_cell_angle_gamma    95.0312

_space_group_name_H-M_alt    "P 1"
_space_group_IT_number       1

loop_
  _space_group_symop_operation_xyz
  'x, y, z'

loop_
  _atom_site_type_symbol
  _atom_site_label
  _atom_site_symmetry_multiplicity
  _atom_site_fract_x
  _atom_site_fract_y
  _atom_site_fract_z
  _atom_site_occupancy
  Zr  Zr1       1.0  0.40104  0.17091  0.30466  1.0000
  Zr  Zr2       1.0  0.40101  0.17092  0.80463  1.0000
  Zr  Zr3       1.0  0.40104  0.67092  0.30466  1.0000
  Zr  Zr4       1.0  0.40106  0.67092  0.80462  1.0000
  Zr  Zr5       1.0  0.90102  0.17091  0.30465  1.0000
  Zr  Zr6       1.0  0.90103  0.17092  0.80463  1.0000
  Zr  Zr7       1.0  0.90101  0.67091  0.30464  1.0000
  Zr  Zr8       1.0  0.90105  0.67089  0.80465  1.0000
  Zr  Zr9       1.0  0.38263  0.42731  0.33709  1.0000
  Zr  Zr10      1.0  0.38261  0.42735  0.83708  1.0000
  Zr  Zr11      1.0  0.38260  0.92732  0.33707  1.0000
  Zr  Zr12      1.0  0.38261  0.92735  0.83708  1.0000
  Zr  Zr13      1.0  0.88260  0.42733  0.33708  1.0000
  Zr  Zr14      1.0  0.88262  0.42734  0.83708  1.0000
  Zr  Zr15      1.0  0.88262  0.92735  0.33708  1.0000
  Zr  Zr16      1.0  0.88263  0.92731  0.83709  1.0000
  Zr  Zr17      1.0  0.11839  0.07343  0.16359  1.0000
  Zr  Zr18      1.0  0.11840  0.07342  0.66357  1.0000
  Zr  Zr19      1.0  0.11837  0.57341  0.16358  1.0000
  Zr  Zr20      1.0  0.11842  0.57341  0.66357  1.0000
  Zr  Zr21      1.0  0.61839  0.07341  0.16357  1.0000
  Zr  Zr22      1.0  0.61836  0.07341  0.66358  1.0000
  Zr  Zr23      1.0  0.61838  0.57341  0.16357  1.0000
  Zr  Zr24      1.0  0.61840  0.57343  0.66357  1.0000
  Zr  Zr25      1.0  0.09997  0.32983  0.19598  1.0000
  Zr  Zr26      1.0  0.09995  0.32983  0.69600  1.0000
  Zr  Zr27      1.0  0.09995  0.82983  0.19599  1.0000
  Zr  Zr28      1.0  0.09998  0.82982  0.69601  1.0000
  Zr  Zr29      1.0  0.59999  0.32981  0.19597  1.0000
  Zr  Zr30      1.0  0.59994  0.32984  0.69602  1.0000
  Zr  Zr31      1.0  0.59997  0.82982  0.19600  1.0000
  Zr  Zr32      1.0  0.59996  0.82983  0.69599  1.0000
  Bi  Bi1       1.0  0.13852  0.08291  0.41056  1.0000
  Bi  Bi2       1.0  0.13848  0.08292  0.91057  1.0000
  Bi  Bi3       1.0  0.13850  0.58289  0.41055  1.0000
  Bi  Bi4       1.0  0.13854  0.58292  0.91055  1.0000
  Bi  Bi5       1.0  0.63851  0.08290  0.41056  1.0000
  Bi  Bi6       1.0  0.63851  0.08290  0.91055  1.0000
  Bi  Bi7       1.0  0.63851  0.58292  0.41057  1.0000
  Bi  Bi8       1.0  0.63850  0.58290  0.91056  1.0000
  Bi  Bi9       1.0  0.12474  0.31690  0.43030  1.0000
  Bi  Bi10      1.0  0.12475  0.31688  0.93027  1.0000
  Bi  Bi11      1.0  0.12478  0.81688  0.43031  1.0000
  Bi  Bi12      1.0  0.12474  0.81688  0.93027  1.0000
  Bi  Bi13      1.0  0.62477  0.31688  0.43030  1.0000
  Bi  Bi14      1.0  0.62477  0.31687  0.93027  1.0000
  Bi  Bi15      1.0  0.62480  0.81688  0.43028  1.0000
  Bi  Bi16      1.0  0.62475  0.81688  0.93030  1.0000
  Bi  Bi17      1.0  0.37623  0.18386  0.07037  1.0000
  Bi  Bi18      1.0  0.37623  0.18384  0.57035  1.0000
  Bi  Bi19      1.0  0.37627  0.68387  0.07037  1.0000
  Bi  Bi20      1.0  0.37620  0.68389  0.57036  1.0000
  Bi  Bi21      1.0  0.87623  0.18386  0.07037  1.0000
  Bi  Bi22      1.0  0.87624  0.18386  0.57037  1.0000
  Bi  Bi23      1.0  0.87622  0.68385  0.07035  1.0000
  Bi  Bi24      1.0  0.87622  0.68388  0.57038  1.0000
  Bi  Bi25      1.0  0.36252  0.41783  0.09008  1.0000
  Bi  Bi26      1.0  0.36247  0.41783  0.59011  1.0000
  Bi  Bi27      1.0  0.36249  0.91783  0.09009  1.0000
  Bi  Bi28      1.0  0.36250  0.91783  0.59011  1.0000
  Bi  Bi29      1.0  0.86249  0.41782  0.09011  1.0000
  Bi  Bi30      1.0  0.86248  0.41784  0.59010  1.0000
  Bi  Bi31      1.0  0.86248  0.91783  0.09010  1.0000
  Bi  Bi32      1.0  0.86249  0.91784  0.59009  1.0000
  O   O1        1.0  0.49864  0.16949  0.43382  1.0000
  O   O2        1.0  0.49866  0.16952  0.93380  1.0000
  O   O3        1.0  0.49867  0.66951  0.43382  1.0000
  O   O4        1.0  0.49861  0.66952  0.93380  1.0000
  O   O5        1.0  0.99862  0.16948  0.43383  1.0000
  O   O6        1.0  0.99864  0.16951  0.93381  1.0000
  O   O7        1.0  0.99866  0.66951  0.43383  1.0000
  O   O8        1.0  0.99866  0.66952  0.93381  1.0000
  O   O9        1.0  0.25304  0.20151  0.39365  1.0000
  O   O10       1.0  0.25305  0.20150  0.89363  1.0000
  O   O11       1.0  0.25300  0.70149  0.39365  1.0000
  O   O12       1.0  0.25304  0.70149  0.89364  1.0000
  O   O13       1.0  0.75305  0.20148  0.39367  1.0000
  O   O14       1.0  0.75304  0.20148  0.89364  1.0000
  O   O15       1.0  0.75304  0.70150  0.39366  1.0000
  O   O16       1.0  0.75304  0.70149  0.89365  1.0000
  O   O17       1.0  0.30593  0.40563  0.46128  1.0000
  O   O18       1.0  0.30592  0.40565  0.96128  1.0000
  O   O19       1.0  0.30589  0.90562  0.46129  1.0000
  O   O20       1.0  0.30592  0.90562  0.96129  1.0000
  O   O21       1.0  0.80594  0.40564  0.46130  1.0000
  O   O22       1.0  0.80595  0.40566  0.96127  1.0000
  O   O23       1.0  0.80595  0.90561  0.46127  1.0000
  O   O24       1.0  0.80589  0.90563  0.96130  1.0000
  O   O25       1.0  0.30291  0.04377  0.34443  1.0000
  O   O26       1.0  0.30292  0.04377  0.84447  1.0000
  O   O27       1.0  0.30295  0.54379  0.34447  1.0000
  O   O28       1.0  0.30296  0.54379  0.84443  1.0000
  O   O29       1.0  0.80292  0.04377  0.34443  1.0000
  O   O30       1.0  0.80291  0.04377  0.84444  1.0000
  O   O31       1.0  0.80294  0.54378  0.34449  1.0000
  O   O32       1.0  0.80296  0.54378  0.84447  1.0000
  O   O33       1.0  0.04744  0.45828  0.41104  1.0000
  O   O34       1.0  0.04743  0.45827  0.91107  1.0000
  O   O35       1.0  0.04748  0.95830  0.41107  1.0000
  O   O36       1.0  0.04747  0.95830  0.91106  1.0000
  O   O37       1.0  0.54743  0.45833  0.41109  1.0000
  O   O38       1.0  0.54746  0.45828  0.91105  1.0000
  O   O39       1.0  0.54744  0.95828  0.41111  1.0000
  O   O40       1.0  0.54743  0.95829  0.91108  1.0000
  O   O41       1.0  0.47283  0.30083  0.32077  1.0000
  O   O42       1.0  0.47286  0.30083  0.82075  1.0000
  O   O43       1.0  0.47284  0.80082  0.32074  1.0000
  O   O44       1.0  0.47284  0.80084  0.82076  1.0000
  O   O45       1.0  0.97284  0.30083  0.32075  1.0000
  O   O46       1.0  0.97286  0.30082  0.82074  1.0000
  O   O47       1.0  0.97285  0.80083  0.32077  1.0000
  O   O48       1.0  0.97283  0.80081  0.82076  1.0000
  O   O49       1.0  0.04025  0.08044  0.28815  1.0000
  O   O50       1.0  0.04025  0.08041  0.78811  1.0000
  O   O51       1.0  0.04024  0.58046  0.28816  1.0000
  O   O52       1.0  0.04029  0.58044  0.78811  1.0000
  O   O53       1.0  0.54026  0.08046  0.28813  1.0000
  O   O54       1.0  0.54025  0.08040  0.78811  1.0000
  O   O55       1.0  0.54025  0.58043  0.28815  1.0000
  O   O56       1.0  0.54029  0.58046  0.78812  1.0000
  O   O57       1.0  0.27987  0.14730  0.20245  1.0000
  O   O58       1.0  0.27987  0.14731  0.70246  1.0000
  O   O59       1.0  0.27987  0.64731  0.20246  1.0000
  O   O60       1.0  0.27987  0.64731  0.70244  1.0000
  O   O61       1.0  0.77987  0.14731  0.20244  1.0000
  O   O62       1.0  0.77983  0.14732  0.70246  1.0000
  O   O63       1.0  0.77988  0.64732  0.20244  1.0000
  O   O64       1.0  0.77986  0.64726  0.70244  1.0000
  O   O65       1.0  0.22112  0.35346  0.29822  1.0000
  O   O66       1.0  0.22111  0.35345  0.79819  1.0000
  O   O67       1.0  0.22116  0.85345  0.29821  1.0000
  O   O68       1.0  0.22116  0.85344  0.79821  1.0000
  O   O69       1.0  0.72110  0.35347  0.29822  1.0000
  O   O70       1.0  0.72112  0.35345  0.79822  1.0000
  O   O71       1.0  0.72112  0.85345  0.29821  1.0000
  O   O72       1.0  0.72115  0.85344  0.79822  1.0000
  O   O73       1.0  0.46075  0.42031  0.21252  1.0000
  O   O74       1.0  0.46068  0.42032  0.71253  1.0000
  O   O75       1.0  0.46076  0.92030  0.21254  1.0000
  O   O76       1.0  0.46075  0.92030  0.71252  1.0000
  O   O77       1.0  0.96077  0.42032  0.21255  1.0000
  O   O78       1.0  0.96074  0.42029  0.71252  1.0000
  O   O79       1.0  0.96070  0.92029  0.21254  1.0000
  O   O80       1.0  0.96073  0.92032  0.71252  1.0000
  O   O81       1.0  0.02816  0.19994  0.17990  1.0000
  O   O82       1.0  0.02815  0.19990  0.67990  1.0000
  O   O83       1.0  0.02817  0.69993  0.17988  1.0000
  O   O84       1.0  0.02813  0.69991  0.67993  1.0000
  O   O85       1.0  0.52813  0.19993  0.17991  1.0000
  O   O86       1.0  0.52816  0.19993  0.67990  1.0000
  O   O87       1.0  0.52817  0.69994  0.17988  1.0000
  O   O88       1.0  0.52818  0.69992  0.67990  1.0000
  O   O89       1.0  0.45358  0.04246  0.08956  1.0000
  O   O90       1.0  0.45355  0.04246  0.58959  1.0000
  O   O91       1.0  0.45355  0.54246  0.08957  1.0000
  O   O92       1.0  0.45355  0.54245  0.58955  1.0000
  O   O93       1.0  0.95354  0.04246  0.08957  1.0000
  O   O94       1.0  0.95357  0.04246  0.58958  1.0000
  O   O95       1.0  0.95356  0.54244  0.08957  1.0000
  O   O96       1.0  0.95353  0.54243  0.58961  1.0000
  O   O97       1.0  0.19810  0.45698  0.15620  1.0000
  O   O98       1.0  0.19806  0.45696  0.65620  1.0000
  O   O99       1.0  0.19809  0.95698  0.15621  1.0000
  O   O100      1.0  0.19805  0.95695  0.65619  1.0000
  O   O101      1.0  0.69806  0.45696  0.15621  1.0000
  O   O102      1.0  0.69806  0.45696  0.65619  1.0000
  O   O103      1.0  0.69806  0.95698  0.15619  1.0000
  O   O104      1.0  0.69807  0.95695  0.65621  1.0000
  O   O105      1.0  0.19508  0.09513  0.03936  1.0000
  O   O106      1.0  0.19505  0.09512  0.53937  1.0000
  O   O107      1.0  0.19505  0.59511  0.03939  1.0000
  O   O108      1.0  0.19510  0.59510  0.53935  1.0000
  O   O109      1.0  0.69513  0.09515  0.03936  1.0000
  O   O110      1.0  0.69510  0.09512  0.53937  1.0000
  O   O111      1.0  0.69507  0.59510  0.03936  1.0000
  O   O112      1.0  0.69512  0.59513  0.53937  1.0000
  O   O113      1.0  0.24798  0.29926  0.10699  1.0000
  O   O114      1.0  0.24795  0.29927  0.60701  1.0000
  O   O115      1.0  0.24794  0.79925  0.10703  1.0000
  O   O116      1.0  0.24797  0.79925  0.60703  1.0000
  O   O117      1.0  0.74796  0.29925  0.10699  1.0000
  O   O118      1.0  0.74795  0.29928  0.60703  1.0000
  O   O119      1.0  0.74797  0.79926  0.10702  1.0000
  O   O120      1.0  0.74797  0.79925  0.60702  1.0000
  O   O121      1.0  0.00236  0.33125  0.06685  1.0000
  O   O122      1.0  0.00236  0.33126  0.56683  1.0000
  O   O123      1.0  0.00236  0.83125  0.06683  1.0000
  O   O124      1.0  0.00232  0.83125  0.56684  1.0000
  O   O125      1.0  0.50233  0.33122  0.06683  1.0000
  O   O126      1.0  0.50233  0.33123  0.56686  1.0000
  O   O127      1.0  0.50239  0.83127  0.06683  1.0000
  O   O128      1.0  0.50237  0.83123  0.56685  1.0000
