data_image0
_chemical_formula_structural       Ba32Ta16O72
_chemical_formula_sum              "Ba32 Ta16 O72"
_cell_length_a       12.4625
_cell_length_b       10.7935
_cell_length_c       15.6571
_cell_angle_alpha    90.0019
_cell_angle_beta     90.0003
_cell_angle_gamma    90.0001

_space_group_name_H-M_alt    "P 1"
_space_group_IT_number       1

loop_
  _space_group_symop_operation_xyz
  'x, y, z'

loop_
  _atom_site_type_symbol
  _atom_site_label
  _atom_site_symmetry_multiplicity
  _atom_site_fract_x
  _atom_site_fract_y
  _atom_site_fract_z
  _atom_site_occupancy
  Ba  Ba1       1.0  0.25042  0.16711  0.53171  1.0000
  Ba  Ba2       1.0  0.50037  0.66725  0.53171  1.0000
  Ba  Ba3       1.0  0.75032  0.16709  0.53163  1.0000
  Ba  Ba4       1.0  0.00045  0.66708  0.53169  1.0000
  Ba  Ba5       1.0  0.25036  0.16717  0.79308  1.0000
  Ba  Ba6       1.0  0.50038  0.66704  0.79302  1.0000
  Ba  Ba7       1.0  0.75042  0.16717  0.79302  1.0000
  Ba  Ba8       1.0  0.00048  0.66706  0.79300  1.0000
  Ba  Ba9       1.0  0.25037  0.16714  0.29307  1.0000
  Ba  Ba10      1.0  0.50036  0.66714  0.29308  1.0000
  Ba  Ba11      1.0  0.75037  0.16717  0.29302  1.0000
  Ba  Ba12      1.0  0.00035  0.66713  0.29302  1.0000
  Ba  Ba13      1.0  0.25041  0.16718  0.03171  1.0000
  Ba  Ba14      1.0  0.50039  0.66715  0.03170  1.0000
  Ba  Ba15      1.0  0.75037  0.16709  0.03166  1.0000
  Ba  Ba16      1.0  0.00036  0.66706  0.03165  1.0000
  Ba  Ba17      1.0  0.25041  0.83383  0.70760  1.0000
  Ba  Ba18      1.0  0.50042  0.33378  0.70765  1.0000
  Ba  Ba19      1.0  0.75037  0.83379  0.70764  1.0000
  Ba  Ba20      1.0  0.00041  0.33375  0.70753  1.0000
  Ba  Ba21      1.0  0.25041  0.83377  0.20757  1.0000
  Ba  Ba22      1.0  0.50035  0.33377  0.20765  1.0000
  Ba  Ba23      1.0  0.75032  0.83379  0.20763  1.0000
  Ba  Ba24      1.0  0.00041  0.33373  0.20757  1.0000
  Ba  Ba25      1.0  0.25039  0.83383  0.96896  1.0000
  Ba  Ba26      1.0  0.50045  0.33371  0.96900  1.0000
  Ba  Ba27      1.0  0.75045  0.83378  0.96902  1.0000
  Ba  Ba28      1.0  0.00040  0.33365  0.96894  1.0000
  Ba  Ba29      1.0  0.25036  0.83382  0.46895  1.0000
  Ba  Ba30      1.0  0.50042  0.33389  0.46900  1.0000
  Ba  Ba31      1.0  0.75050  0.83373  0.46901  1.0000
  Ba  Ba32      1.0  0.00035  0.33375  0.46889  1.0000
  Ta  Ta1       1.0  0.00038  0.00040  0.65156  1.0000
  Ta  Ta2       1.0  0.25044  0.50046  0.65167  1.0000
  Ta  Ta3       1.0  0.50039  0.00050  0.65156  1.0000
  Ta  Ta4       1.0  0.75044  0.50047  0.65162  1.0000
  Ta  Ta5       1.0  0.00037  0.00044  0.84898  1.0000
  Ta  Ta6       1.0  0.25042  0.50042  0.84909  1.0000
  Ta  Ta7       1.0  0.50038  0.00045  0.84896  1.0000
  Ta  Ta8       1.0  0.75047  0.50048  0.84903  1.0000
  Ta  Ta9       1.0  0.00039  0.00042  0.15162  1.0000
  Ta  Ta10      1.0  0.25039  0.50044  0.15166  1.0000
  Ta  Ta11      1.0  0.50034  0.00045  0.15156  1.0000
  Ta  Ta12      1.0  0.75037  0.50039  0.15162  1.0000
  Ta  Ta13      1.0  0.00033  0.00046  0.34903  1.0000
  Ta  Ta14      1.0  0.25036  0.50046  0.34907  1.0000
  Ta  Ta15      1.0  0.50037  0.00050  0.34898  1.0000
  Ta  Ta16      1.0  0.75037  0.50043  0.34902  1.0000
  O   O1        1.0  0.19199  0.38372  0.25034  1.0000
  O   O2        1.0  0.44203  0.88367  0.25033  1.0000
  O   O3        1.0  0.69195  0.38371  0.25034  1.0000
  O   O4        1.0  0.94194  0.88370  0.25033  1.0000
  O   O5        1.0  0.19786  0.35226  0.90406  1.0000
  O   O6        1.0  0.44777  0.85230  0.90390  1.0000
  O   O7        1.0  0.69788  0.35232  0.90400  1.0000
  O   O8        1.0  0.94781  0.85225  0.90392  1.0000
  O   O9        1.0  0.30293  0.35227  0.40400  1.0000
  O   O10       1.0  0.55303  0.85234  0.40394  1.0000
  O   O11       1.0  0.80288  0.35222  0.40394  1.0000
  O   O12       1.0  0.05288  0.85219  0.40397  1.0000
  O   O13       1.0  0.08524  0.12702  0.40404  1.0000
  O   O14       1.0  0.33525  0.62710  0.40403  1.0000
  O   O15       1.0  0.58521  0.12722  0.40389  1.0000
  O   O16       1.0  0.83529  0.62699  0.40403  1.0000
  O   O17       1.0  0.05877  0.11720  0.75028  1.0000
  O   O18       1.0  0.30871  0.61722  0.75037  1.0000
  O   O19       1.0  0.55885  0.11716  0.75026  1.0000
  O   O20       1.0  0.80885  0.61720  0.75033  1.0000
  O   O21       1.0  0.11715  0.00041  0.25031  1.0000
  O   O22       1.0  0.36714  0.50048  0.25033  1.0000
  O   O23       1.0  0.61711  0.00057  0.25022  1.0000
  O   O24       1.0  0.86712  0.50038  0.25034  1.0000
  O   O25       1.0  0.13779  0.02198  0.90395  1.0000
  O   O26       1.0  0.38786  0.52195  0.90400  1.0000
  O   O27       1.0  0.63783  0.02191  0.90388  1.0000
  O   O28       1.0  0.88791  0.52206  0.90399  1.0000
  O   O29       1.0  0.41555  0.12711  0.90397  1.0000
  O   O30       1.0  0.66561  0.62714  0.90398  1.0000
  O   O31       1.0  0.91550  0.12706  0.90396  1.0000
  O   O32       1.0  0.16554  0.62712  0.90399  1.0000
  O   O33       1.0  0.13781  0.97883  0.59661  1.0000
  O   O34       1.0  0.38789  0.47900  0.59673  1.0000
  O   O35       1.0  0.63782  0.97883  0.59661  1.0000
  O   O36       1.0  0.88784  0.47891  0.59663  1.0000
  O   O37       1.0  0.05873  0.88366  0.75025  1.0000
  O   O38       1.0  0.30883  0.38372  0.75035  1.0000
  O   O39       1.0  0.55862  0.88363  0.75022  1.0000
  O   O40       1.0  0.80884  0.38373  0.75034  1.0000
  O   O41       1.0  0.36296  0.02200  0.40397  1.0000
  O   O42       1.0  0.61295  0.52201  0.40398  1.0000
  O   O43       1.0  0.86290  0.02200  0.40394  1.0000
  O   O44       1.0  0.11293  0.52199  0.40400  1.0000
  O   O45       1.0  0.08521  0.87379  0.09664  1.0000
  O   O46       1.0  0.33528  0.37383  0.09671  1.0000
  O   O47       1.0  0.58524  0.87378  0.09663  1.0000
  O   O48       1.0  0.83522  0.37377  0.09665  1.0000
  O   O49       1.0  0.36292  0.97881  0.09663  1.0000
  O   O50       1.0  0.61292  0.47896  0.09668  1.0000
  O   O51       1.0  0.86291  0.97891  0.09670  1.0000
  O   O52       1.0  0.11297  0.47889  0.09667  1.0000
  O   O53       1.0  0.38360  0.00064  0.75025  1.0000
  O   O54       1.0  0.63369  0.50047  0.75034  1.0000
  O   O55       1.0  0.88362  0.00050  0.75027  1.0000
  O   O56       1.0  0.13365  0.50030  0.75036  1.0000
  O   O57       1.0  0.41543  0.87392  0.59657  1.0000
  O   O58       1.0  0.66558  0.37378  0.59672  1.0000
  O   O59       1.0  0.91544  0.87374  0.59666  1.0000
  O   O60       1.0  0.16561  0.37383  0.59666  1.0000
  O   O61       1.0  0.19786  0.64867  0.59675  1.0000
  O   O62       1.0  0.44796  0.14873  0.59664  1.0000
  O   O63       1.0  0.69785  0.64867  0.59669  1.0000
  O   O64       1.0  0.94781  0.14852  0.59656  1.0000
  O   O65       1.0  0.19200  0.61722  0.25035  1.0000
  O   O66       1.0  0.44190  0.11716  0.25026  1.0000
  O   O67       1.0  0.69196  0.61718  0.25033  1.0000
  O   O68       1.0  0.94202  0.11722  0.25035  1.0000
  O   O69       1.0  0.30293  0.64865  0.09667  1.0000
  O   O70       1.0  0.55286  0.14863  0.09663  1.0000
  O   O71       1.0  0.80296  0.64860  0.09669  1.0000
  O   O72       1.0  0.05293  0.14860  0.09665  1.0000
