data_image0
_chemical_formula_structural       Ge54O108
_chemical_formula_sum              "Ge54 O108"
_cell_length_a       14.9628
_cell_length_b       13.1949
_cell_length_c       11.3685
_cell_angle_alpha    90.0041
_cell_angle_beta     90.0074
_cell_angle_gamma    100.894

_space_group_name_H-M_alt    "P 1"
_space_group_IT_number       1

loop_
  _space_group_symop_operation_xyz
  'x, y, z'

loop_
  _atom_site_type_symbol
  _atom_site_label
  _atom_site_symmetry_multiplicity
  _atom_site_fract_x
  _atom_site_fract_y
  _atom_site_fract_z
  _atom_site_occupancy
  Ge  Ge1       1.0  0.12278  0.18408  0.00050  1.0000
  Ge  Ge2       1.0  0.12278  0.18411  0.50051  1.0000
  Ge  Ge3       1.0  0.45621  0.18412  0.00039  1.0000
  Ge  Ge4       1.0  0.45620  0.18411  0.50047  1.0000
  Ge  Ge5       1.0  0.34521  0.51736  0.00051  1.0000
  Ge  Ge6       1.0  0.34524  0.51753  0.50055  1.0000
  Ge  Ge7       1.0  0.23394  0.85058  0.00050  1.0000
  Ge  Ge8       1.0  0.23392  0.85065  0.50045  1.0000
  Ge  Ge9       1.0  0.78948  0.18415  0.00028  1.0000
  Ge  Ge10      1.0  0.78942  0.18412  0.50029  1.0000
  Ge  Ge11      1.0  0.67844  0.51745  0.00045  1.0000
  Ge  Ge12      1.0  0.67845  0.51733  0.50051  1.0000
  Ge  Ge13      1.0  0.56733  0.85064  0.00042  1.0000
  Ge  Ge14      1.0  0.56718  0.85057  0.50023  1.0000
  Ge  Ge15      1.0  0.01188  0.51748  0.00049  1.0000
  Ge  Ge16      1.0  0.01171  0.51723  0.50049  1.0000
  Ge  Ge17      1.0  0.90047  0.85058  0.00032  1.0000
  Ge  Ge18      1.0  0.90065  0.85084  0.50041  1.0000
  Ge  Ge19      1.0  0.95052  0.15021  0.33362  1.0000
  Ge  Ge20      1.0  0.95049  0.15003  0.83365  1.0000
  Ge  Ge21      1.0  0.28378  0.15007  0.33374  1.0000
  Ge  Ge22      1.0  0.28382  0.15007  0.83384  1.0000
  Ge  Ge23      1.0  0.17277  0.48354  0.33380  1.0000
  Ge  Ge24      1.0  0.17285  0.48353  0.83372  1.0000
  Ge  Ge25      1.0  0.06163  0.81677  0.33377  1.0000
  Ge  Ge26      1.0  0.06163  0.81675  0.83370  1.0000
  Ge  Ge27      1.0  0.61715  0.15001  0.33356  1.0000
  Ge  Ge28      1.0  0.61717  0.14996  0.83359  1.0000
  Ge  Ge29      1.0  0.50605  0.48337  0.33378  1.0000
  Ge  Ge30      1.0  0.50602  0.48348  0.83377  1.0000
  Ge  Ge31      1.0  0.39490  0.81667  0.33377  1.0000
  Ge  Ge32      1.0  0.39499  0.81675  0.83391  1.0000
  Ge  Ge33      1.0  0.83933  0.48339  0.33372  1.0000
  Ge  Ge34      1.0  0.83935  0.48356  0.83373  1.0000
  Ge  Ge35      1.0  0.72832  0.81687  0.33369  1.0000
  Ge  Ge36      1.0  0.72819  0.81679  0.83372  1.0000
  Ge  Ge37      1.0  0.15003  0.00033  0.16702  1.0000
  Ge  Ge38      1.0  0.15014  0.00035  0.66708  1.0000
  Ge  Ge39      1.0  0.48315  0.00022  0.16693  1.0000
  Ge  Ge40      1.0  0.48329  0.00019  0.66695  1.0000
  Ge  Ge41      1.0  0.37227  0.33368  0.16705  1.0000
  Ge  Ge42      1.0  0.37229  0.33376  0.66716  1.0000
  Ge  Ge43      1.0  0.26137  0.66703  0.16710  1.0000
  Ge  Ge44      1.0  0.26131  0.66717  0.66718  1.0000
  Ge  Ge45      1.0  0.81669  0.00040  0.16690  1.0000
  Ge  Ge46      1.0  0.81662  0.00038  0.66696  1.0000
  Ge  Ge47      1.0  0.70553  0.33373  0.16692  1.0000
  Ge  Ge48      1.0  0.70557  0.33372  0.66697  1.0000
  Ge  Ge49      1.0  0.59464  0.66710  0.16718  1.0000
  Ge  Ge50      1.0  0.59459  0.66707  0.66710  1.0000
  Ge  Ge51      1.0  0.03910  0.33386  0.16707  1.0000
  Ge  Ge52      1.0  0.03896  0.33375  0.66715  1.0000
  Ge  Ge53      1.0  0.92792  0.66704  0.16709  1.0000
  Ge  Ge54      1.0  0.92794  0.66710  0.66709  1.0000
  O   O1        1.0  0.05800  0.13244  0.37866  1.0000
  O   O2        1.0  0.05801  0.13245  0.87863  1.0000
  O   O3        1.0  0.39138  0.13256  0.37857  1.0000
  O   O4        1.0  0.39135  0.13239  0.87864  1.0000
  O   O5        1.0  0.28027  0.46593  0.37883  1.0000
  O   O6        1.0  0.28042  0.46591  0.87853  1.0000
  O   O7        1.0  0.16905  0.79887  0.37877  1.0000
  O   O8        1.0  0.16913  0.79908  0.87865  1.0000
  O   O9        1.0  0.72467  0.13229  0.37847  1.0000
  O   O10       1.0  0.72472  0.13232  0.87843  1.0000
  O   O11       1.0  0.61349  0.46558  0.37883  1.0000
  O   O12       1.0  0.61357  0.46580  0.87861  1.0000
  O   O13       1.0  0.50243  0.79891  0.37841  1.0000
  O   O14       1.0  0.50253  0.79901  0.87857  1.0000
  O   O15       1.0  0.94676  0.46547  0.37877  1.0000
  O   O16       1.0  0.94686  0.46580  0.87875  1.0000
  O   O17       1.0  0.83586  0.79930  0.37856  1.0000
  O   O18       1.0  0.83566  0.79891  0.87851  1.0000
  O   O19       1.0  0.10087  0.30348  0.04528  1.0000
  O   O20       1.0  0.10077  0.30349  0.54529  1.0000
  O   O21       1.0  0.43415  0.30344  0.04528  1.0000
  O   O22       1.0  0.43423  0.30345  0.54546  1.0000
  O   O23       1.0  0.32304  0.63664  0.04527  1.0000
  O   O24       1.0  0.32300  0.63681  0.54533  1.0000
  O   O25       1.0  0.21190  0.96993  0.04535  1.0000
  O   O26       1.0  0.21198  0.97007  0.54527  1.0000
  O   O27       1.0  0.76733  0.30345  0.04510  1.0000
  O   O28       1.0  0.76731  0.30346  0.54505  1.0000
  O   O29       1.0  0.65636  0.63681  0.04528  1.0000
  O   O30       1.0  0.65637  0.63667  0.54535  1.0000
  O   O31       1.0  0.54512  0.96993  0.04526  1.0000
  O   O32       1.0  0.54498  0.96984  0.54507  1.0000
  O   O33       1.0  0.98964  0.63679  0.04517  1.0000
  O   O34       1.0  0.98940  0.63651  0.54514  1.0000
  O   O35       1.0  0.87856  0.97004  0.04512  1.0000
  O   O36       1.0  0.87857  0.97015  0.54528  1.0000
  O   O37       1.0  0.95363  0.23225  0.21180  1.0000
  O   O38       1.0  0.95352  0.23210  0.71188  1.0000
  O   O39       1.0  0.28684  0.23201  0.21183  1.0000
  O   O40       1.0  0.28692  0.23212  0.71204  1.0000
  O   O41       1.0  0.17584  0.56548  0.21194  1.0000
  O   O42       1.0  0.17581  0.56553  0.71191  1.0000
  O   O43       1.0  0.06467  0.89870  0.21191  1.0000
  O   O44       1.0  0.06473  0.89868  0.71179  1.0000
  O   O45       1.0  0.62010  0.23212  0.21184  1.0000
  O   O46       1.0  0.62028  0.23188  0.71166  1.0000
  O   O47       1.0  0.50922  0.56539  0.21193  1.0000
  O   O48       1.0  0.50905  0.56548  0.71189  1.0000
  O   O49       1.0  0.39772  0.89870  0.21202  1.0000
  O   O50       1.0  0.39792  0.89864  0.71201  1.0000
  O   O51       1.0  0.84243  0.56539  0.21185  1.0000
  O   O52       1.0  0.84228  0.56564  0.71195  1.0000
  O   O53       1.0  0.73125  0.89872  0.21170  1.0000
  O   O54       1.0  0.73122  0.89875  0.71184  1.0000
  O   O55       1.0  0.09852  0.10208  0.12241  1.0000
  O   O56       1.0  0.09870  0.10219  0.62250  1.0000
  O   O57       1.0  0.43178  0.10199  0.12214  1.0000
  O   O58       1.0  0.43193  0.10205  0.62233  1.0000
  O   O59       1.0  0.32070  0.43531  0.12231  1.0000
  O   O60       1.0  0.32091  0.43556  0.62244  1.0000
  O   O61       1.0  0.20974  0.76863  0.12237  1.0000
  O   O62       1.0  0.20964  0.76876  0.62240  1.0000
  O   O63       1.0  0.76523  0.10219  0.12224  1.0000
  O   O64       1.0  0.76522  0.10216  0.62222  1.0000
  O   O65       1.0  0.65392  0.43533  0.12218  1.0000
  O   O66       1.0  0.65398  0.43539  0.62238  1.0000
  O   O67       1.0  0.54297  0.76866  0.12228  1.0000
  O   O68       1.0  0.54303  0.76873  0.62222  1.0000
  O   O69       1.0  0.98756  0.43556  0.12242  1.0000
  O   O70       1.0  0.98733  0.43538  0.62247  1.0000
  O   O71       1.0  0.87627  0.76867  0.12229  1.0000
  O   O72       1.0  0.87649  0.76891  0.62235  1.0000
  O   O73       1.0  0.22191  0.03070  0.28896  1.0000
  O   O74       1.0  0.22187  0.03073  0.78913  1.0000
  O   O75       1.0  0.55518  0.03073  0.28870  1.0000
  O   O76       1.0  0.55511  0.03066  0.78892  1.0000
  O   O77       1.0  0.44418  0.36406  0.28893  1.0000
  O   O78       1.0  0.44407  0.36408  0.78919  1.0000
  O   O79       1.0  0.33316  0.69733  0.28898  1.0000
  O   O80       1.0  0.33308  0.69744  0.78912  1.0000
  O   O81       1.0  0.88861  0.03084  0.28881  1.0000
  O   O82       1.0  0.88855  0.03075  0.78882  1.0000
  O   O83       1.0  0.77740  0.36413  0.28881  1.0000
  O   O84       1.0  0.77748  0.36418  0.78886  1.0000
  O   O85       1.0  0.66653  0.69747  0.28902  1.0000
  O   O86       1.0  0.66626  0.69743  0.78913  1.0000
  O   O87       1.0  0.11100  0.36414  0.28898  1.0000
  O   O88       1.0  0.11091  0.36415  0.78901  1.0000
  O   O89       1.0  0.99975  0.69746  0.28896  1.0000
  O   O90       1.0  0.99992  0.69735  0.78887  1.0000
  O   O91       1.0  0.23624  0.20173  0.45569  1.0000
  O   O92       1.0  0.23623  0.20158  0.95580  1.0000
  O   O93       1.0  0.56963  0.20162  0.45557  1.0000
  O   O94       1.0  0.56965  0.20179  0.95547  1.0000
  O   O95       1.0  0.45859  0.53525  0.45560  1.0000
  O   O96       1.0  0.45865  0.53504  0.95587  1.0000
  O   O97       1.0  0.34732  0.86818  0.45566  1.0000
  O   O98       1.0  0.34739  0.86816  0.95587  1.0000
  O   O99       1.0  0.90285  0.20185  0.45544  1.0000
  O   O100      1.0  0.90292  0.20167  0.95556  1.0000
  O   O101      1.0  0.79181  0.53515  0.45554  1.0000
  O   O102      1.0  0.79188  0.53528  0.95567  1.0000
  O   O103      1.0  0.68061  0.86852  0.45543  1.0000
  O   O104      1.0  0.68078  0.86851  0.95565  1.0000
  O   O105      1.0  0.12512  0.53503  0.45571  1.0000
  O   O106      1.0  0.12530  0.53512  0.95568  1.0000
  O   O107      1.0  0.01403  0.86846  0.45552  1.0000
  O   O108      1.0  0.01387  0.86823  0.95546  1.0000
