data_image0
_chemical_formula_structural       Sn24Ge24O72
_chemical_formula_sum              "Sn24 Ge24 O72"
_cell_length_a       14.2851
_cell_length_b       11.7478
_cell_length_c       12.6323
_cell_angle_alpha    113.816
_cell_angle_beta     90.0041
_cell_angle_gamma    90.0019

_space_group_name_H-M_alt    "P 1"
_space_group_IT_number       1

loop_
  _space_group_symop_operation_xyz
  'x, y, z'

loop_
  _atom_site_type_symbol
  _atom_site_label
  _atom_site_symmetry_multiplicity
  _atom_site_fract_x
  _atom_site_fract_y
  _atom_site_fract_z
  _atom_site_occupancy
  Sn  Sn1       1.0  0.34151  0.68350  0.89782  1.0000
  Sn  Sn2       1.0  0.84155  0.68349  0.89771  1.0000
  Sn  Sn3       1.0  0.01756  0.55127  0.67855  1.0000
  Sn  Sn4       1.0  0.51752  0.55145  0.67859  1.0000
  Sn  Sn5       1.0  0.15921  0.18348  0.39780  1.0000
  Sn  Sn6       1.0  0.65925  0.18350  0.39761  1.0000
  Sn  Sn7       1.0  0.48316  0.05121  0.17849  1.0000
  Sn  Sn8       1.0  0.98314  0.05125  0.17863  1.0000
  Sn  Sn9       1.0  0.18829  0.41377  0.83309  1.0000
  Sn  Sn10      1.0  0.68829  0.41365  0.83294  1.0000
  Sn  Sn11      1.0  0.31252  0.91372  0.33306  1.0000
  Sn  Sn12      1.0  0.81243  0.91366  0.33313  1.0000
  Sn  Sn13      1.0  0.18830  0.08752  0.66795  1.0000
  Sn  Sn14      1.0  0.68822  0.08755  0.66809  1.0000
  Sn  Sn15      1.0  0.31243  0.58752  0.16810  1.0000
  Sn  Sn16      1.0  0.81235  0.58750  0.16798  1.0000
  Sn  Sn17      1.0  0.01757  0.94999  0.82230  1.0000
  Sn  Sn18      1.0  0.51742  0.94997  0.82231  1.0000
  Sn  Sn19      1.0  0.34149  0.81786  0.60313  1.0000
  Sn  Sn20      1.0  0.84146  0.81790  0.60314  1.0000
  Sn  Sn21      1.0  0.48319  0.44971  0.32217  1.0000
  Sn  Sn22      1.0  0.98303  0.45004  0.32232  1.0000
  Sn  Sn23      1.0  0.15912  0.31785  0.10331  1.0000
  Sn  Sn24      1.0  0.65916  0.31783  0.10309  1.0000
  Ge  Ge1       1.0  0.08557  0.70249  0.95578  1.0000
  Ge  Ge2       1.0  0.58558  0.70237  0.95569  1.0000
  Ge  Ge3       1.0  0.29662  0.46272  0.60921  1.0000
  Ge  Ge4       1.0  0.79665  0.46263  0.60904  1.0000
  Ge  Ge5       1.0  0.41522  0.20243  0.45573  1.0000
  Ge  Ge6       1.0  0.91524  0.20230  0.45575  1.0000
  Ge  Ge7       1.0  0.43865  0.39137  0.84427  1.0000
  Ge  Ge8       1.0  0.93863  0.39134  0.84426  1.0000
  Ge  Ge9       1.0  0.20422  0.96285  0.10927  1.0000
  Ge  Ge10      1.0  0.70424  0.96272  0.10909  1.0000
  Ge  Ge11      1.0  0.43863  0.10999  0.65646  1.0000
  Ge  Ge12      1.0  0.93864  0.10995  0.65652  1.0000
  Ge  Ge13      1.0  0.06218  0.89135  0.34437  1.0000
  Ge  Ge14      1.0  0.56216  0.89138  0.34437  1.0000
  Ge  Ge15      1.0  0.29657  0.03845  0.89200  1.0000
  Ge  Ge16      1.0  0.79664  0.03844  0.89195  1.0000
  Ge  Ge17      1.0  0.06204  0.61005  0.15657  1.0000
  Ge  Ge18      1.0  0.56209  0.61001  0.15657  1.0000
  Ge  Ge19      1.0  0.08557  0.79874  0.54515  1.0000
  Ge  Ge20      1.0  0.58556  0.79876  0.54507  1.0000
  Ge  Ge21      1.0  0.20409  0.53837  0.39206  1.0000
  Ge  Ge22      1.0  0.70409  0.53835  0.39195  1.0000
  Ge  Ge23      1.0  0.41520  0.29892  0.04507  1.0000
  Ge  Ge24      1.0  0.91519  0.29889  0.04507  1.0000
  O   O1        1.0  0.00792  0.70075  0.84810  1.0000
  O   O2        1.0  0.50781  0.70082  0.84819  1.0000
  O   O3        1.0  0.25043  0.50077  0.50072  1.0000
  O   O4        1.0  0.75030  0.50071  0.50065  1.0000
  O   O5        1.0  0.36372  0.58766  0.70809  1.0000
  O   O6        1.0  0.86379  0.58750  0.70801  1.0000
  O   O7        1.0  0.18618  0.61565  0.89489  1.0000
  O   O8        1.0  0.68621  0.61559  0.89472  1.0000
  O   O9        1.0  0.39064  0.35759  0.54831  1.0000
  O   O10       1.0  0.89067  0.35748  0.54818  1.0000
  O   O11       1.0  0.20856  0.41065  0.67017  1.0000
  O   O12       1.0  0.70867  0.41045  0.67001  1.0000
  O   O13       1.0  0.49278  0.20063  0.34799  1.0000
  O   O14       1.0  0.99282  0.20064  0.34807  1.0000
  O   O15       1.0  0.25036  0.00076  0.00068  1.0000
  O   O16       1.0  0.75051  0.00032  0.00038  1.0000
  O   O17       1.0  0.34491  0.49613  0.88288  1.0000
  O   O18       1.0  0.84487  0.49604  0.88273  1.0000
  O   O19       1.0  0.03081  0.43815  0.78015  1.0000
  O   O20       1.0  0.53084  0.43820  0.78024  1.0000
  O   O21       1.0  0.13695  0.08765  0.20811  1.0000
  O   O22       1.0  0.63702  0.08757  0.20793  1.0000
  O   O23       1.0  0.31451  0.11571  0.39488  1.0000
  O   O24       1.0  0.81446  0.11564  0.39522  1.0000
  O   O25       1.0  0.48053  0.13685  0.53658  1.0000
  O   O26       1.0  0.98056  0.13686  0.53669  1.0000
  O   O27       1.0  0.11022  0.85762  0.04836  1.0000
  O   O28       1.0  0.61022  0.85752  0.04825  1.0000
  O   O29       1.0  0.38542  0.25070  0.75036  1.0000
  O   O30       1.0  0.88540  0.25066  0.75038  1.0000
  O   O31       1.0  0.29228  0.91073  0.17016  1.0000
  O   O32       1.0  0.79226  0.91085  0.17028  1.0000
  O   O33       1.0  0.48047  0.36444  0.96415  1.0000
  O   O34       1.0  0.98042  0.36443  0.96417  1.0000
  O   O35       1.0  0.15595  0.99607  0.38286  1.0000
  O   O36       1.0  0.65588  0.99615  0.38292  1.0000
  O   O37       1.0  0.46999  0.93810  0.28016  1.0000
  O   O38       1.0  0.96993  0.93809  0.28028  1.0000
  O   O39       1.0  0.03076  0.06316  0.72074  1.0000
  O   O40       1.0  0.53069  0.06315  0.72072  1.0000
  O   O41       1.0  0.34482  0.00529  0.61813  1.0000
  O   O42       1.0  0.84485  0.00526  0.61797  1.0000
  O   O43       1.0  0.02025  0.63703  0.03671  1.0000
  O   O44       1.0  0.52028  0.63698  0.03671  1.0000
  O   O45       1.0  0.20859  0.09043  0.83083  1.0000
  O   O46       1.0  0.70864  0.09051  0.83092  1.0000
  O   O47       1.0  0.11539  0.75069  0.25040  1.0000
  O   O48       1.0  0.61534  0.75066  0.25056  1.0000
  O   O49       1.0  0.39059  0.14375  0.95255  1.0000
  O   O50       1.0  0.89065  0.14371  0.95267  1.0000
  O   O51       1.0  0.02039  0.86435  0.46422  1.0000
  O   O52       1.0  0.52028  0.86436  0.46421  1.0000
  O   O53       1.0  0.18630  0.88549  0.60595  1.0000
  O   O54       1.0  0.68625  0.88552  0.60599  1.0000
  O   O55       1.0  0.36369  0.91365  0.79292  1.0000
  O   O56       1.0  0.86376  0.91367  0.79285  1.0000
  O   O57       1.0  0.46998  0.56320  0.22081  1.0000
  O   O58       1.0  0.96986  0.56330  0.22076  1.0000
  O   O59       1.0  0.15574  0.50521  0.11809  1.0000
  O   O60       1.0  0.65584  0.50527  0.11819  1.0000
  O   O61       1.0  0.00792  0.80058  0.65283  1.0000
  O   O62       1.0  0.50797  0.80049  0.65279  1.0000
  O   O63       1.0  0.29194  0.59069  0.33103  1.0000
  O   O64       1.0  0.79202  0.59048  0.33085  1.0000
  O   O65       1.0  0.10997  0.64348  0.45274  1.0000
  O   O66       1.0  0.61009  0.64361  0.45261  1.0000
  O   O67       1.0  0.31453  0.38562  0.10606  1.0000
  O   O68       1.0  0.81448  0.38553  0.10601  1.0000
  O   O69       1.0  0.13686  0.41361  0.29303  1.0000
  O   O70       1.0  0.63692  0.41355  0.29291  1.0000
  O   O71       1.0  0.49285  0.30049  0.15269  1.0000
  O   O72       1.0  0.99284  0.30079  0.15279  1.0000
