data_image0
_chemical_formula_structural       Sn18Bi18O72
_chemical_formula_sum              "Sn18 Bi18 O72"
_cell_length_a       12.4139
_cell_length_b       12.4134
_cell_length_c       10.8523
_cell_angle_alpha    89.9943
_cell_angle_beta     90.0073
_cell_angle_gamma    90.0034

_space_group_name_H-M_alt    "P 1"
_space_group_IT_number       1

loop_
  _space_group_symop_operation_xyz
  'x, y, z'

loop_
  _atom_site_type_symbol
  _atom_site_label
  _atom_site_symmetry_multiplicity
  _atom_site_fract_x
  _atom_site_fract_y
  _atom_site_fract_z
  _atom_site_occupancy
  Sn  Sn1       1.0  0.00046  0.16680  0.25103  1.0000
  Sn  Sn2       1.0  0.33379  0.16630  0.25179  1.0000
  Sn  Sn3       1.0  0.66704  0.16631  0.25161  1.0000
  Sn  Sn4       1.0  0.00025  0.50034  0.25367  1.0000
  Sn  Sn5       1.0  0.16626  0.33362  0.74904  1.0000
  Sn  Sn6       1.0  0.33450  0.50032  0.25002  1.0000
  Sn  Sn7       1.0  0.50033  0.33435  0.75056  1.0000
  Sn  Sn8       1.0  0.66635  0.50042  0.25051  1.0000
  Sn  Sn9       1.0  0.83441  0.33376  0.74923  1.0000
  Sn  Sn10      1.0  0.00043  0.83385  0.25127  1.0000
  Sn  Sn11      1.0  0.16641  0.66696  0.74921  1.0000
  Sn  Sn12      1.0  0.33383  0.83428  0.25173  1.0000
  Sn  Sn13      1.0  0.50041  0.66625  0.75064  1.0000
  Sn  Sn14      1.0  0.66714  0.83443  0.25184  1.0000
  Sn  Sn15      1.0  0.83444  0.66694  0.74899  1.0000
  Sn  Sn16      1.0  0.16690  0.00042  0.74958  1.0000
  Sn  Sn17      1.0  0.50057  0.00041  0.74702  1.0000
  Sn  Sn18      1.0  0.83395  0.00038  0.75010  1.0000
  Bi  Bi1       1.0  0.00061  0.00030  0.00048  1.0000
  Bi  Bi2       1.0  0.33473  0.00033  0.99938  1.0000
  Bi  Bi3       1.0  0.66614  0.00034  0.99958  1.0000
  Bi  Bi4       1.0  0.00038  0.33464  0.00142  1.0000
  Bi  Bi5       1.0  0.16684  0.16682  0.50025  1.0000
  Bi  Bi6       1.0  0.33337  0.33326  0.00031  1.0000
  Bi  Bi7       1.0  0.50047  0.16786  0.50034  1.0000
  Bi  Bi8       1.0  0.66728  0.33354  0.00051  1.0000
  Bi  Bi9       1.0  0.83398  0.16674  0.50045  1.0000
  Bi  Bi10      1.0  0.00030  0.66611  0.00134  1.0000
  Bi  Bi11      1.0  0.16789  0.50042  0.50025  1.0000
  Bi  Bi12      1.0  0.33350  0.66739  0.00035  1.0000
  Bi  Bi13      1.0  0.50024  0.50036  0.50045  1.0000
  Bi  Bi14      1.0  0.66750  0.66739  0.00045  1.0000
  Bi  Bi15      1.0  0.83301  0.50036  0.50050  1.0000
  Bi  Bi16      1.0  0.16696  0.83380  0.50049  1.0000
  Bi  Bi17      1.0  0.50045  0.83287  0.50049  1.0000
  Bi  Bi18      1.0  0.83405  0.83407  0.50066  1.0000
  O   O1        1.0  0.00054  0.16653  0.44254  1.0000
  O   O2        1.0  0.33600  0.16749  0.44550  1.0000
  O   O3        1.0  0.66471  0.16761  0.44513  1.0000
  O   O4        1.0  0.00042  0.50035  0.44869  1.0000
  O   O5        1.0  0.16995  0.33553  0.93958  1.0000
  O   O6        1.0  0.32969  0.50030  0.44111  1.0000
  O   O7        1.0  0.50031  0.33385  0.94342  1.0000
  O   O8        1.0  0.67106  0.50054  0.44171  1.0000
  O   O9        1.0  0.83071  0.33565  0.93976  1.0000
  O   O10       1.0  0.00053  0.83400  0.44296  1.0000
  O   O11       1.0  0.17005  0.66516  0.93980  1.0000
  O   O12       1.0  0.33603  0.83297  0.44532  1.0000
  O   O13       1.0  0.50042  0.66692  0.94340  1.0000
  O   O14       1.0  0.66489  0.83319  0.44538  1.0000
  O   O15       1.0  0.83086  0.66544  0.93941  1.0000
  O   O16       1.0  0.16195  0.00020  0.94101  1.0000
  O   O17       1.0  0.50053  0.00043  0.93404  1.0000
  O   O18       1.0  0.83904  0.00015  0.94160  1.0000
  O   O19       1.0  0.00143  0.00034  0.21037  1.0000
  O   O20       1.0  0.33876  0.00025  0.21807  1.0000
  O   O21       1.0  0.66105  0.00038  0.21781  1.0000
  O   O22       1.0  0.00047  0.33171  0.21745  1.0000
  O   O23       1.0  0.16433  0.16817  0.71019  1.0000
  O   O24       1.0  0.33082  0.33494  0.21156  1.0000
  O   O25       1.0  0.50139  0.16530  0.70581  1.0000
  O   O26       1.0  0.66995  0.33485  0.21183  1.0000
  O   O27       1.0  0.83554  0.16827  0.71084  1.0000
  O   O28       1.0  0.99957  0.66895  0.21760  1.0000
  O   O29       1.0  0.17343  0.50027  0.70664  1.0000
  O   O30       1.0  0.33110  0.66573  0.21139  1.0000
  O   O31       1.0  0.49951  0.50029  0.71544  1.0000
  O   O32       1.0  0.67051  0.66593  0.21193  1.0000
  O   O33       1.0  0.82798  0.50047  0.70653  1.0000
  O   O34       1.0  0.16502  0.83256  0.71035  1.0000
  O   O35       1.0  0.50048  0.83551  0.70610  1.0000
  O   O36       1.0  0.83575  0.83237  0.71048  1.0000
  O   O37       1.0  0.00039  0.00023  0.79061  1.0000
  O   O38       1.0  0.33187  0.00086  0.78306  1.0000
  O   O39       1.0  0.66916  0.99991  0.78359  1.0000
  O   O40       1.0  0.00039  0.33929  0.78297  1.0000
  O   O41       1.0  0.16844  0.16541  0.29053  1.0000
  O   O42       1.0  0.33489  0.32984  0.78911  1.0000
  O   O43       1.0  0.50029  0.17306  0.29431  1.0000
  O   O44       1.0  0.66573  0.33153  0.78923  1.0000
  O   O45       1.0  0.83255  0.16447  0.29011  1.0000
  O   O46       1.0  0.00050  0.66153  0.78284  1.0000
  O   O47       1.0  0.16518  0.50070  0.29453  1.0000
  O   O48       1.0  0.33492  0.67035  0.78924  1.0000
  O   O49       1.0  0.50048  0.50049  0.28538  1.0000
  O   O50       1.0  0.66581  0.66952  0.78900  1.0000
  O   O51       1.0  0.83540  0.49979  0.29502  1.0000
  O   O52       1.0  0.16829  0.83494  0.29061  1.0000
  O   O53       1.0  0.50043  0.82753  0.29418  1.0000
  O   O54       1.0  0.83268  0.83680  0.29059  1.0000
  O   O55       1.0  0.00059  0.16176  0.05957  1.0000
  O   O56       1.0  0.33564  0.16989  0.06127  1.0000
  O   O57       1.0  0.66507  0.16997  0.06103  1.0000
  O   O58       1.0  0.99988  0.50037  0.06668  1.0000
  O   O59       1.0  0.16772  0.33592  0.55547  1.0000
  O   O60       1.0  0.33389  0.50037  0.05714  1.0000
  O   O61       1.0  0.50006  0.32973  0.55934  1.0000
  O   O62       1.0  0.66679  0.50044  0.05770  1.0000
  O   O63       1.0  0.83315  0.33609  0.55568  1.0000
  O   O64       1.0  0.00045  0.83887  0.05979  1.0000
  O   O65       1.0  0.16792  0.66478  0.55564  1.0000
  O   O66       1.0  0.33573  0.83072  0.06121  1.0000
  O   O67       1.0  0.50037  0.67097  0.55950  1.0000
  O   O68       1.0  0.66540  0.83088  0.06126  1.0000
  O   O69       1.0  0.83327  0.66482  0.55537  1.0000
  O   O70       1.0  0.16690  0.00033  0.55788  1.0000
  O   O71       1.0  0.50043  0.00040  0.55199  1.0000
  O   O72       1.0  0.83423  0.00027  0.55862  1.0000
