data_image0
_chemical_formula_structural       Li32Ca16Ge16O64
_chemical_formula_sum              "Li32 Ca16 Ge16 O64"
_cell_length_a       10.2794
_cell_length_b       10.2794
_cell_length_c       13.1118
_cell_angle_alpha    89.9955
_cell_angle_beta     89.9938
_cell_angle_gamma    89.9924

_space_group_name_H-M_alt    "P 1"
_space_group_IT_number       1

loop_
  _space_group_symop_operation_xyz
  'x, y, z'

loop_
  _atom_site_type_symbol
  _atom_site_label
  _atom_site_symmetry_multiplicity
  _atom_site_fract_x
  _atom_site_fract_y
  _atom_site_fract_z
  _atom_site_occupancy
  Li  Li1       1.0  0.00055  0.25049  0.37528  1.0000
  Li  Li2       1.0  0.00045  0.25046  0.87541  1.0000
  Li  Li3       1.0  0.25042  0.50046  0.62543  1.0000
  Li  Li4       1.0  0.00050  0.75041  0.37533  1.0000
  Li  Li5       1.0  0.50057  0.25054  0.37549  1.0000
  Li  Li6       1.0  0.25049  0.50046  0.12541  1.0000
  Li  Li7       1.0  0.00046  0.75046  0.87541  1.0000
  Li  Li8       1.0  0.50053  0.25047  0.87545  1.0000
  Li  Li9       1.0  0.25063  0.00052  0.62531  1.0000
  Li  Li10      1.0  0.75049  0.50053  0.62533  1.0000
  Li  Li11      1.0  0.50055  0.75049  0.37539  1.0000
  Li  Li12      1.0  0.25049  0.00056  0.12535  1.0000
  Li  Li13      1.0  0.75048  0.50043  0.12537  1.0000
  Li  Li14      1.0  0.50041  0.75055  0.87546  1.0000
  Li  Li15      1.0  0.75045  0.00047  0.62539  1.0000
  Li  Li16      1.0  0.75054  0.00047  0.12542  1.0000
  Li  Li17      1.0  0.25048  0.00037  0.37534  1.0000
  Li  Li18      1.0  0.25042  0.00040  0.87545  1.0000
  Li  Li19      1.0  0.50042  0.25052  0.62547  1.0000
  Li  Li20      1.0  0.25050  0.50056  0.37537  1.0000
  Li  Li21      1.0  0.75053  0.00047  0.37536  1.0000
  Li  Li22      1.0  0.50044  0.25054  0.12544  1.0000
  Li  Li23      1.0  0.25042  0.50049  0.87530  1.0000
  Li  Li24      1.0  0.75052  0.00047  0.87530  1.0000
  Li  Li25      1.0  0.50046  0.75051  0.62548  1.0000
  Li  Li26      1.0  0.00048  0.25057  0.62534  1.0000
  Li  Li27      1.0  0.75051  0.50049  0.37537  1.0000
  Li  Li28      1.0  0.50051  0.75048  0.12538  1.0000
  Li  Li29      1.0  0.00048  0.25051  0.12535  1.0000
  Li  Li30      1.0  0.75054  0.50038  0.87545  1.0000
  Li  Li31      1.0  0.00050  0.75051  0.62533  1.0000
  Li  Li32      1.0  0.00046  0.75062  0.12538  1.0000
  Ca  Ca1       1.0  0.00055  0.00045  0.25038  1.0000
  Ca  Ca2       1.0  0.00054  0.00046  0.75032  1.0000
  Ca  Ca3       1.0  0.25052  0.25049  0.50034  1.0000
  Ca  Ca4       1.0  0.00048  0.50049  0.25031  1.0000
  Ca  Ca5       1.0  0.50050  0.00050  0.25038  1.0000
  Ca  Ca6       1.0  0.25048  0.25050  0.00042  1.0000
  Ca  Ca7       1.0  0.00047  0.50049  0.75043  1.0000
  Ca  Ca8       1.0  0.50053  0.00049  0.75043  1.0000
  Ca  Ca9       1.0  0.25049  0.75049  0.50042  1.0000
  Ca  Ca10      1.0  0.75052  0.25050  0.50036  1.0000
  Ca  Ca11      1.0  0.50054  0.50049  0.25039  1.0000
  Ca  Ca12      1.0  0.25043  0.75046  0.00042  1.0000
  Ca  Ca13      1.0  0.75044  0.25046  0.00048  1.0000
  Ca  Ca14      1.0  0.50053  0.50051  0.75048  1.0000
  Ca  Ca15      1.0  0.75051  0.75056  0.50043  1.0000
  Ca  Ca16      1.0  0.75043  0.75048  0.00046  1.0000
  Ge  Ge1       1.0  0.00047  0.00048  0.50035  1.0000
  Ge  Ge2       1.0  0.00046  0.00049  0.00038  1.0000
  Ge  Ge3       1.0  0.25048  0.25043  0.75038  1.0000
  Ge  Ge4       1.0  0.00046  0.50056  0.50036  1.0000
  Ge  Ge5       1.0  0.50052  0.00048  0.50037  1.0000
  Ge  Ge6       1.0  0.25052  0.25046  0.25037  1.0000
  Ge  Ge7       1.0  0.00045  0.50048  0.00039  1.0000
  Ge  Ge8       1.0  0.50048  0.00051  0.00040  1.0000
  Ge  Ge9       1.0  0.25046  0.75046  0.75037  1.0000
  Ge  Ge10      1.0  0.75045  0.25046  0.75036  1.0000
  Ge  Ge11      1.0  0.50046  0.50050  0.50039  1.0000
  Ge  Ge12      1.0  0.25046  0.75048  0.25035  1.0000
  Ge  Ge13      1.0  0.75043  0.25041  0.25038  1.0000
  Ge  Ge14      1.0  0.50038  0.50043  0.00039  1.0000
  Ge  Ge15      1.0  0.75046  0.75039  0.75039  1.0000
  Ge  Ge16      1.0  0.75049  0.75048  0.25039  1.0000
  O   O1        1.0  0.85141  0.14948  0.32567  1.0000
  O   O2        1.0  0.85142  0.14950  0.82565  1.0000
  O   O3        1.0  0.10146  0.39964  0.57565  1.0000
  O   O4        1.0  0.85144  0.64955  0.32569  1.0000
  O   O5        1.0  0.35146  0.14957  0.32570  1.0000
  O   O6        1.0  0.10141  0.39963  0.07573  1.0000
  O   O7        1.0  0.85141  0.64946  0.82570  1.0000
  O   O8        1.0  0.35143  0.14946  0.82568  1.0000
  O   O9        1.0  0.10143  0.89962  0.57570  1.0000
  O   O10       1.0  0.60148  0.39957  0.57567  1.0000
  O   O11       1.0  0.35147  0.64956  0.32564  1.0000
  O   O12       1.0  0.10139  0.89961  0.07579  1.0000
  O   O13       1.0  0.60133  0.39961  0.07580  1.0000
  O   O14       1.0  0.35140  0.64956  0.82575  1.0000
  O   O15       1.0  0.60145  0.89959  0.57575  1.0000
  O   O16       1.0  0.60142  0.89956  0.07576  1.0000
  O   O17       1.0  0.14952  0.85142  0.32569  1.0000
  O   O18       1.0  0.14956  0.85142  0.82574  1.0000
  O   O19       1.0  0.39958  0.10145  0.57567  1.0000
  O   O20       1.0  0.14959  0.35145  0.32565  1.0000
  O   O21       1.0  0.64961  0.85146  0.32574  1.0000
  O   O22       1.0  0.39957  0.10152  0.07568  1.0000
  O   O23       1.0  0.14954  0.35140  0.82571  1.0000
  O   O24       1.0  0.64954  0.85137  0.82572  1.0000
  O   O25       1.0  0.39949  0.60147  0.57570  1.0000
  O   O26       1.0  0.89948  0.10136  0.57570  1.0000
  O   O27       1.0  0.64957  0.35141  0.32571  1.0000
  O   O28       1.0  0.39950  0.60151  0.07567  1.0000
  O   O29       1.0  0.89949  0.10148  0.07569  1.0000
  O   O30       1.0  0.64957  0.35142  0.82570  1.0000
  O   O31       1.0  0.89953  0.60150  0.57568  1.0000
  O   O32       1.0  0.89953  0.60146  0.07570  1.0000
  O   O33       1.0  0.14958  0.14963  0.17506  1.0000
  O   O34       1.0  0.14956  0.14959  0.67501  1.0000
  O   O35       1.0  0.39957  0.39959  0.42505  1.0000
  O   O36       1.0  0.14952  0.64960  0.17504  1.0000
  O   O37       1.0  0.64951  0.14957  0.17505  1.0000
  O   O38       1.0  0.39952  0.39948  0.92510  1.0000
  O   O39       1.0  0.14954  0.64952  0.67511  1.0000
  O   O40       1.0  0.64952  0.14958  0.67508  1.0000
  O   O41       1.0  0.39959  0.89954  0.42511  1.0000
  O   O42       1.0  0.89959  0.39956  0.42508  1.0000
  O   O43       1.0  0.64959  0.64955  0.17509  1.0000
  O   O44       1.0  0.39953  0.89957  0.92516  1.0000
  O   O45       1.0  0.89959  0.39945  0.92516  1.0000
  O   O46       1.0  0.64949  0.64952  0.67511  1.0000
  O   O47       1.0  0.89960  0.89954  0.42504  1.0000
  O   O48       1.0  0.89954  0.89954  0.92510  1.0000
  O   O49       1.0  0.10142  0.10140  0.42504  1.0000
  O   O50       1.0  0.10147  0.10147  0.92512  1.0000
  O   O51       1.0  0.35144  0.35149  0.67517  1.0000
  O   O52       1.0  0.10145  0.60149  0.42508  1.0000
  O   O53       1.0  0.60148  0.10142  0.42509  1.0000
  O   O54       1.0  0.35143  0.35141  0.17510  1.0000
  O   O55       1.0  0.10137  0.60142  0.92508  1.0000
  O   O56       1.0  0.60148  0.10145  0.92511  1.0000
  O   O57       1.0  0.35141  0.85143  0.67510  1.0000
  O   O58       1.0  0.85144  0.35146  0.67514  1.0000
  O   O59       1.0  0.60146  0.60148  0.42511  1.0000
  O   O60       1.0  0.35144  0.85151  0.17513  1.0000
  O   O61       1.0  0.85142  0.35137  0.17511  1.0000
  O   O62       1.0  0.60138  0.60134  0.92510  1.0000
  O   O63       1.0  0.85144  0.85134  0.67511  1.0000
  O   O64       1.0  0.85142  0.85145  0.17509  1.0000
