data_image0
_chemical_formula_structural       Ba48Ge24O96
_chemical_formula_sum              "Ba48 Ge24 O96"
_cell_length_a       22.9261
_cell_length_b       10.4698
_cell_length_c       12.1034
_cell_angle_alpha    89.9969
_cell_angle_beta     89.9979
_cell_angle_gamma    89.9995

_space_group_name_H-M_alt    "P 1"
_space_group_IT_number       1

loop_
  _space_group_symop_operation_xyz
  'x, y, z'

loop_
  _atom_site_type_symbol
  _atom_site_label
  _atom_site_symmetry_multiplicity
  _atom_site_fract_x
  _atom_site_fract_y
  _atom_site_fract_z
  _atom_site_occupancy
  Ba  Ba1       1.0  0.00006  0.30230  0.39142  1.0000
  Ba  Ba2       1.0  0.00004  0.30239  0.89142  1.0000
  Ba  Ba3       1.0  0.00036  0.69833  0.14129  1.0000
  Ba  Ba4       1.0  0.00036  0.69839  0.64130  1.0000
  Ba  Ba5       1.0  0.05295  0.08042  0.13994  1.0000
  Ba  Ba6       1.0  0.05292  0.08045  0.63997  1.0000
  Ba  Ba7       1.0  0.11284  0.58353  0.38053  1.0000
  Ba  Ba8       1.0  0.11283  0.58351  0.88052  1.0000
  Ba  Ba9       1.0  0.16758  0.80488  0.12570  1.0000
  Ba  Ba10      1.0  0.16758  0.80482  0.62570  1.0000
  Ba  Ba11      1.0  0.16652  0.19921  0.37147  1.0000
  Ba  Ba12      1.0  0.16652  0.19920  0.87148  1.0000
  Ba  Ba13      1.0  0.21930  0.42044  0.12187  1.0000
  Ba  Ba14      1.0  0.21929  0.42047  0.62187  1.0000
  Ba  Ba15      1.0  0.28112  0.92045  0.37182  1.0000
  Ba  Ba16      1.0  0.28109  0.92050  0.87180  1.0000
  Ba  Ba17      1.0  0.33387  0.69916  0.12142  1.0000
  Ba  Ba18      1.0  0.33386  0.69922  0.62152  1.0000
  Ba  Ba19      1.0  0.33281  0.30481  0.37567  1.0000
  Ba  Ba20      1.0  0.33279  0.30482  0.87567  1.0000
  Ba  Ba21      1.0  0.38758  0.08347  0.13054  1.0000
  Ba  Ba22      1.0  0.38758  0.08353  0.63047  1.0000
  Ba  Ba23      1.0  0.44745  0.58035  0.38997  1.0000
  Ba  Ba24      1.0  0.44746  0.58037  0.88996  1.0000
  Ba  Ba25      1.0  0.50006  0.19835  0.39128  1.0000
  Ba  Ba26      1.0  0.50006  0.19834  0.89133  1.0000
  Ba  Ba27      1.0  0.50037  0.80237  0.14140  1.0000
  Ba  Ba28      1.0  0.50036  0.80238  0.64136  1.0000
  Ba  Ba29      1.0  0.55295  0.42050  0.13992  1.0000
  Ba  Ba30      1.0  0.55294  0.42047  0.63998  1.0000
  Ba  Ba31      1.0  0.61287  0.91725  0.38036  1.0000
  Ba  Ba32      1.0  0.61290  0.91723  0.88035  1.0000
  Ba  Ba33      1.0  0.66760  0.69624  0.12556  1.0000
  Ba  Ba34      1.0  0.66759  0.69626  0.62557  1.0000
  Ba  Ba35      1.0  0.66655  0.30171  0.37128  1.0000
  Ba  Ba36      1.0  0.66658  0.30168  0.87127  1.0000
  Ba  Ba37      1.0  0.71929  0.08049  0.12173  1.0000
  Ba  Ba38      1.0  0.71933  0.08057  0.62168  1.0000
  Ba  Ba39      1.0  0.78111  0.58060  0.37164  1.0000
  Ba  Ba40      1.0  0.78112  0.58053  0.87169  1.0000
  Ba  Ba41      1.0  0.83388  0.80156  0.12131  1.0000
  Ba  Ba42      1.0  0.83386  0.80163  0.62125  1.0000
  Ba  Ba43      1.0  0.83286  0.19629  0.37563  1.0000
  Ba  Ba44      1.0  0.83284  0.19626  0.87559  1.0000
  Ba  Ba45      1.0  0.88756  0.41716  0.13037  1.0000
  Ba  Ba46      1.0  0.88759  0.41722  0.63039  1.0000
  Ba  Ba47      1.0  0.94749  0.92052  0.38995  1.0000
  Ba  Ba48      1.0  0.94747  0.92052  0.88995  1.0000
  Ge  Ge1       1.0  0.07372  0.41887  0.12741  1.0000
  Ge  Ge2       1.0  0.07374  0.41894  0.62738  1.0000
  Ge  Ge3       1.0  0.09378  0.91873  0.38681  1.0000
  Ge  Ge4       1.0  0.09376  0.91871  0.88681  1.0000
  Ge  Ge5       1.0  0.24097  0.08512  0.12590  1.0000
  Ge  Ge6       1.0  0.24096  0.08511  0.62590  1.0000
  Ge  Ge7       1.0  0.25939  0.58512  0.37598  1.0000
  Ge  Ge8       1.0  0.25938  0.58511  0.87605  1.0000
  Ge  Ge9       1.0  0.40666  0.41871  0.13688  1.0000
  Ge  Ge10      1.0  0.40664  0.41869  0.63688  1.0000
  Ge  Ge11      1.0  0.42670  0.91883  0.37736  1.0000
  Ge  Ge12      1.0  0.42672  0.91889  0.87736  1.0000
  Ge  Ge13      1.0  0.57374  0.08180  0.12723  1.0000
  Ge  Ge14      1.0  0.57375  0.08185  0.62721  1.0000
  Ge  Ge15      1.0  0.59378  0.58204  0.38687  1.0000
  Ge  Ge16      1.0  0.59380  0.58199  0.88688  1.0000
  Ge  Ge17      1.0  0.74096  0.41613  0.12580  1.0000
  Ge  Ge18      1.0  0.74095  0.41615  0.62570  1.0000
  Ge  Ge19      1.0  0.75947  0.91633  0.37575  1.0000
  Ge  Ge20      1.0  0.75947  0.91632  0.87576  1.0000
  Ge  Ge21      1.0  0.90665  0.08191  0.13694  1.0000
  Ge  Ge22      1.0  0.90665  0.08197  0.63695  1.0000
  Ge  Ge23      1.0  0.92673  0.58174  0.37721  1.0000
  Ge  Ge24      1.0  0.92672  0.58181  0.87722  1.0000
  O   O1        1.0  0.00172  0.56609  0.35051  1.0000
  O   O2        1.0  0.00171  0.56620  0.85055  1.0000
  O   O3        1.0  0.05885  0.07033  0.39963  1.0000
  O   O4        1.0  0.05882  0.07029  0.89965  1.0000
  O   O5        1.0  0.06728  0.82102  0.49480  1.0000
  O   O6        1.0  0.06734  0.82084  0.99474  1.0000
  O   O7        1.0  0.07066  0.85498  0.25905  1.0000
  O   O8        1.0  0.07067  0.85496  0.75905  1.0000
  O   O9        1.0  0.08857  0.31602  0.23882  1.0000
  O   O10       1.0  0.08858  0.31609  0.73881  1.0000
  O   O11       1.0  0.10718  0.35993  0.00500  1.0000
  O   O12       1.0  0.10725  0.36001  0.50502  1.0000
  O   O13       1.0  0.10820  0.56869  0.15303  1.0000
  O   O14       1.0  0.10823  0.56875  0.65300  1.0000
  O   O15       1.0  0.16533  0.07145  0.14640  1.0000
  O   O16       1.0  0.16532  0.07132  0.64641  1.0000
  O   O17       1.0  0.16976  0.93182  0.39730  1.0000
  O   O18       1.0  0.16975  0.93186  0.89733  1.0000
  O   O19       1.0  0.22506  0.43512  0.34994  1.0000
  O   O20       1.0  0.22506  0.43510  0.85002  1.0000
  O   O21       1.0  0.22775  0.64085  0.50082  1.0000
  O   O22       1.0  0.22775  0.64082  0.00089  1.0000
  O   O23       1.0  0.24234  0.69042  0.26717  1.0000
  O   O24       1.0  0.24233  0.69033  0.76717  1.0000
  O   O25       1.0  0.25799  0.19040  0.01706  1.0000
  O   O26       1.0  0.25803  0.19039  0.51709  1.0000
  O   O27       1.0  0.27261  0.14086  0.25074  1.0000
  O   O28       1.0  0.27260  0.14086  0.75075  1.0000
  O   O29       1.0  0.27532  0.93513  0.09985  1.0000
  O   O30       1.0  0.27535  0.93515  0.59990  1.0000
  O   O31       1.0  0.33066  0.43172  0.14748  1.0000
  O   O32       1.0  0.33065  0.43177  0.64746  1.0000
  O   O33       1.0  0.33504  0.57144  0.39650  1.0000
  O   O34       1.0  0.33503  0.57144  0.89658  1.0000
  O   O35       1.0  0.39219  0.06863  0.40298  1.0000
  O   O36       1.0  0.39220  0.06866  0.90305  1.0000
  O   O37       1.0  0.39318  0.85997  0.25499  1.0000
  O   O38       1.0  0.39322  0.86002  0.75497  1.0000
  O   O39       1.0  0.41188  0.81593  0.48874  1.0000
  O   O40       1.0  0.41189  0.81599  0.98874  1.0000
  O   O41       1.0  0.42973  0.35499  0.00909  1.0000
  O   O42       1.0  0.42972  0.35492  0.50911  1.0000
  O   O43       1.0  0.43312  0.32095  0.24484  1.0000
  O   O44       1.0  0.43312  0.32093  0.74484  1.0000
  O   O45       1.0  0.44154  0.57035  0.14969  1.0000
  O   O46       1.0  0.44153  0.57031  0.64973  1.0000
  O   O47       1.0  0.49874  0.06625  0.10056  1.0000
  O   O48       1.0  0.49875  0.06635  0.60058  1.0000
  O   O49       1.0  0.50169  0.93443  0.35059  1.0000
  O   O50       1.0  0.50171  0.93452  0.85060  1.0000
  O   O51       1.0  0.55886  0.43045  0.39961  1.0000
  O   O52       1.0  0.55889  0.43037  0.89956  1.0000
  O   O53       1.0  0.56728  0.67974  0.49486  1.0000
  O   O54       1.0  0.56731  0.67961  0.99493  1.0000
  O   O55       1.0  0.57073  0.64591  0.25912  1.0000
  O   O56       1.0  0.57072  0.64593  0.75918  1.0000
  O   O57       1.0  0.58859  0.18468  0.23862  1.0000
  O   O58       1.0  0.58863  0.18475  0.73858  1.0000
  O   O59       1.0  0.60723  0.14069  0.00483  1.0000
  O   O60       1.0  0.60723  0.14072  0.50478  1.0000
  O   O61       1.0  0.60823  0.93202  0.15292  1.0000
  O   O62       1.0  0.60822  0.93203  0.65290  1.0000
  O   O63       1.0  0.66533  0.42968  0.14648  1.0000
  O   O64       1.0  0.66532  0.42974  0.64638  1.0000
  O   O65       1.0  0.66978  0.56915  0.39742  1.0000
  O   O66       1.0  0.66980  0.56906  0.89743  1.0000
  O   O67       1.0  0.72510  0.06624  0.34975  1.0000
  O   O68       1.0  0.72510  0.06623  0.84977  1.0000
  O   O69       1.0  0.72779  0.86037  0.50054  1.0000
  O   O70       1.0  0.72777  0.86037  0.00053  1.0000
  O   O71       1.0  0.74241  0.81099  0.26695  1.0000
  O   O72       1.0  0.74242  0.81099  0.76695  1.0000
  O   O73       1.0  0.75805  0.31087  0.01697  1.0000
  O   O74       1.0  0.75799  0.31079  0.51692  1.0000
  O   O75       1.0  0.77267  0.36032  0.25058  1.0000
  O   O76       1.0  0.77263  0.36029  0.75050  1.0000
  O   O77       1.0  0.77531  0.56611  0.09982  1.0000
  O   O78       1.0  0.77530  0.56610  0.59968  1.0000
  O   O79       1.0  0.83066  0.06891  0.14754  1.0000
  O   O80       1.0  0.83065  0.06907  0.64756  1.0000
  O   O81       1.0  0.83510  0.92982  0.39648  1.0000
  O   O82       1.0  0.83510  0.92982  0.89647  1.0000
  O   O83       1.0  0.89222  0.43200  0.40299  1.0000
  O   O84       1.0  0.89221  0.43204  0.90293  1.0000
  O   O85       1.0  0.89322  0.64054  0.25479  1.0000
  O   O86       1.0  0.89320  0.64065  0.75482  1.0000
  O   O87       1.0  0.91188  0.68476  0.48850  1.0000
  O   O88       1.0  0.91185  0.68476  0.98855  1.0000
  O   O89       1.0  0.92969  0.14592  0.00922  1.0000
  O   O90       1.0  0.92969  0.14600  0.50926  1.0000
  O   O91       1.0  0.93318  0.17952  0.24495  1.0000
  O   O92       1.0  0.93319  0.17959  0.74495  1.0000
  O   O93       1.0  0.94158  0.93031  0.14953  1.0000
  O   O94       1.0  0.94155  0.93034  0.64952  1.0000
  O   O95       1.0  0.99872  0.43442  0.10070  1.0000
  O   O96       1.0  0.99876  0.43449  0.60060  1.0000
