data_image0
_chemical_formula_structural       Hf36Sn12O96
_chemical_formula_sum              "Hf36 Sn12 O96"
_cell_length_a       11.4244
_cell_length_b       14.5817
_cell_length_c       10.4146
_cell_angle_alpha    89.5832
_cell_angle_beta     89.9976
_cell_angle_gamma    90.0014

_space_group_name_H-M_alt    "P 1"
_space_group_IT_number       1

loop_
  _space_group_symop_operation_xyz
  'x, y, z'

loop_
  _atom_site_type_symbol
  _atom_site_label
  _atom_site_symmetry_multiplicity
  _atom_site_fract_x
  _atom_site_fract_y
  _atom_site_fract_z
  _atom_site_occupancy
  Hf  Hf1       1.0  0.09043  0.00036  0.25044  1.0000
  Hf  Hf2       1.0  0.09039  0.00035  0.75044  1.0000
  Hf  Hf3       1.0  0.09032  0.33370  0.25049  1.0000
  Hf  Hf4       1.0  0.09038  0.33366  0.75047  1.0000
  Hf  Hf5       1.0  0.09037  0.66701  0.25046  1.0000
  Hf  Hf6       1.0  0.09038  0.66706  0.75052  1.0000
  Hf  Hf7       1.0  0.59039  0.00037  0.25055  1.0000
  Hf  Hf8       1.0  0.59034  0.00033  0.75052  1.0000
  Hf  Hf9       1.0  0.59040  0.33371  0.25054  1.0000
  Hf  Hf10      1.0  0.59040  0.33367  0.75049  1.0000
  Hf  Hf11      1.0  0.59039  0.66702  0.25051  1.0000
  Hf  Hf12      1.0  0.59041  0.66702  0.75051  1.0000
  Hf  Hf13      1.0  0.33986  0.16709  0.25045  1.0000
  Hf  Hf14      1.0  0.33984  0.16703  0.75052  1.0000
  Hf  Hf15      1.0  0.33979  0.50037  0.25053  1.0000
  Hf  Hf16      1.0  0.33985  0.50039  0.75048  1.0000
  Hf  Hf17      1.0  0.33989  0.83371  0.25049  1.0000
  Hf  Hf18      1.0  0.33982  0.83370  0.75049  1.0000
  Hf  Hf19      1.0  0.83985  0.16702  0.25047  1.0000
  Hf  Hf20      1.0  0.83983  0.16697  0.75052  1.0000
  Hf  Hf21      1.0  0.83986  0.50035  0.25052  1.0000
  Hf  Hf22      1.0  0.83984  0.50039  0.75048  1.0000
  Hf  Hf23      1.0  0.83987  0.83369  0.25047  1.0000
  Hf  Hf24      1.0  0.83980  0.83371  0.75050  1.0000
  Hf  Hf25      1.0  0.16288  0.16702  0.00048  1.0000
  Hf  Hf26      1.0  0.16293  0.16703  0.50046  1.0000
  Hf  Hf27      1.0  0.16290  0.50035  0.00047  1.0000
  Hf  Hf28      1.0  0.16284  0.50037  0.50054  1.0000
  Hf  Hf29      1.0  0.16293  0.83367  0.00050  1.0000
  Hf  Hf30      1.0  0.16290  0.83370  0.50045  1.0000
  Hf  Hf31      1.0  0.66286  0.16703  0.00052  1.0000
  Hf  Hf32      1.0  0.66293  0.16703  0.50053  1.0000
  Hf  Hf33      1.0  0.66294  0.50036  0.00050  1.0000
  Hf  Hf34      1.0  0.66288  0.50038  0.50050  1.0000
  Hf  Hf35      1.0  0.66287  0.83369  0.00054  1.0000
  Hf  Hf36      1.0  0.66291  0.83372  0.50049  1.0000
  Sn  Sn1       1.0  0.41499  0.00038  0.00056  1.0000
  Sn  Sn2       1.0  0.41497  0.00039  0.50054  1.0000
  Sn  Sn3       1.0  0.41503  0.33375  0.00053  1.0000
  Sn  Sn4       1.0  0.41497  0.33373  0.50053  1.0000
  Sn  Sn5       1.0  0.41502  0.66702  0.00052  1.0000
  Sn  Sn6       1.0  0.41499  0.66706  0.50054  1.0000
  Sn  Sn7       1.0  0.91501  0.00038  0.00048  1.0000
  Sn  Sn8       1.0  0.91502  0.00037  0.50045  1.0000
  Sn  Sn9       1.0  0.91498  0.33368  0.00046  1.0000
  Sn  Sn10      1.0  0.91495  0.33371  0.50053  1.0000
  Sn  Sn11      1.0  0.91497  0.66704  0.00049  1.0000
  Sn  Sn12      1.0  0.91500  0.66707  0.50052  1.0000
  O   O1        1.0  0.44609  0.25865  0.33675  1.0000
  O   O2        1.0  0.44608  0.25864  0.83674  1.0000
  O   O3        1.0  0.44602  0.59201  0.33671  1.0000
  O   O4        1.0  0.44615  0.59190  0.83678  1.0000
  O   O5        1.0  0.44609  0.92530  0.33677  1.0000
  O   O6        1.0  0.44605  0.92526  0.83681  1.0000
  O   O7        1.0  0.94604  0.25863  0.33676  1.0000
  O   O8        1.0  0.94608  0.25858  0.83671  1.0000
  O   O9        1.0  0.94608  0.59195  0.33675  1.0000
  O   O10       1.0  0.94609  0.59196  0.83673  1.0000
  O   O11       1.0  0.94612  0.92529  0.33666  1.0000
  O   O12       1.0  0.94601  0.92536  0.83663  1.0000
  O   O13       1.0  0.05317  0.25802  0.08774  1.0000
  O   O14       1.0  0.05326  0.25810  0.58763  1.0000
  O   O15       1.0  0.05325  0.59141  0.08765  1.0000
  O   O16       1.0  0.05318  0.59140  0.58776  1.0000
  O   O17       1.0  0.05328  0.92476  0.08763  1.0000
  O   O18       1.0  0.05321  0.92472  0.58765  1.0000
  O   O19       1.0  0.55322  0.25807  0.08777  1.0000
  O   O20       1.0  0.55323  0.25807  0.58769  1.0000
  O   O21       1.0  0.55328  0.59140  0.08772  1.0000
  O   O22       1.0  0.55320  0.59139  0.58773  1.0000
  O   O23       1.0  0.55323  0.92473  0.08778  1.0000
  O   O24       1.0  0.55319  0.92470  0.58774  1.0000
  O   O25       1.0  0.19635  0.24084  0.33554  1.0000
  O   O26       1.0  0.19634  0.24078  0.83555  1.0000
  O   O27       1.0  0.19631  0.57414  0.33563  1.0000
  O   O28       1.0  0.19634  0.57414  0.83556  1.0000
  O   O29       1.0  0.19640  0.90749  0.33555  1.0000
  O   O30       1.0  0.19631  0.90744  0.83556  1.0000
  O   O31       1.0  0.69636  0.24080  0.33561  1.0000
  O   O32       1.0  0.69634  0.24077  0.83559  1.0000
  O   O33       1.0  0.69637  0.57414  0.33557  1.0000
  O   O34       1.0  0.69641  0.57416  0.83562  1.0000
  O   O35       1.0  0.69637  0.90745  0.33554  1.0000
  O   O36       1.0  0.69629  0.90743  0.83558  1.0000
  O   O37       1.0  0.30295  0.24353  0.08600  1.0000
  O   O38       1.0  0.30297  0.24348  0.58605  1.0000
  O   O39       1.0  0.30294  0.57684  0.08609  1.0000
  O   O40       1.0  0.30290  0.57686  0.58607  1.0000
  O   O41       1.0  0.30296  0.91015  0.08606  1.0000
  O   O42       1.0  0.30290  0.91020  0.58608  1.0000
  O   O43       1.0  0.80291  0.24350  0.08606  1.0000
  O   O44       1.0  0.80292  0.24351  0.58613  1.0000
  O   O45       1.0  0.80300  0.57679  0.08607  1.0000
  O   O46       1.0  0.80293  0.57685  0.58603  1.0000
  O   O47       1.0  0.80299  0.91015  0.08602  1.0000
  O   O48       1.0  0.80293  0.91020  0.58604  1.0000
  O   O49       1.0  0.30299  0.09060  0.41488  1.0000
  O   O50       1.0  0.30293  0.09053  0.91493  1.0000
  O   O51       1.0  0.30290  0.42390  0.41497  1.0000
  O   O52       1.0  0.30300  0.42393  0.91494  1.0000
  O   O53       1.0  0.30299  0.75726  0.41494  1.0000
  O   O54       1.0  0.30291  0.75716  0.91489  1.0000
  O   O55       1.0  0.80296  0.09055  0.41490  1.0000
  O   O56       1.0  0.80291  0.09054  0.91496  1.0000
  O   O57       1.0  0.80288  0.42386  0.41492  1.0000
  O   O58       1.0  0.80297  0.42387  0.91488  1.0000
  O   O59       1.0  0.80299  0.75725  0.41493  1.0000
  O   O60       1.0  0.80291  0.75721  0.91491  1.0000
  O   O61       1.0  0.19641  0.09326  0.16536  1.0000
  O   O62       1.0  0.19637  0.09324  0.66535  1.0000
  O   O63       1.0  0.19631  0.42660  0.16542  1.0000
  O   O64       1.0  0.19636  0.42657  0.66541  1.0000
  O   O65       1.0  0.19637  0.75991  0.16544  1.0000
  O   O66       1.0  0.19635  0.75992  0.66535  1.0000
  O   O67       1.0  0.69636  0.09324  0.16542  1.0000
  O   O68       1.0  0.69634  0.09321  0.66543  1.0000
  O   O69       1.0  0.69637  0.42658  0.16540  1.0000
  O   O70       1.0  0.69632  0.42661  0.66541  1.0000
  O   O71       1.0  0.69640  0.75988  0.16540  1.0000
  O   O72       1.0  0.69637  0.75990  0.66536  1.0000
  O   O73       1.0  0.44611  0.07545  0.16432  1.0000
  O   O74       1.0  0.44606  0.07541  0.66433  1.0000
  O   O75       1.0  0.44608  0.40879  0.16432  1.0000
  O   O76       1.0  0.44607  0.40876  0.66430  1.0000
  O   O77       1.0  0.44614  0.74213  0.16423  1.0000
  O   O78       1.0  0.44607  0.74208  0.66433  1.0000
  O   O79       1.0  0.94612  0.07545  0.16423  1.0000
  O   O80       1.0  0.94612  0.07547  0.66418  1.0000
  O   O81       1.0  0.94606  0.40875  0.16423  1.0000
  O   O82       1.0  0.94607  0.40875  0.66429  1.0000
  O   O83       1.0  0.94609  0.74208  0.16426  1.0000
  O   O84       1.0  0.94608  0.74212  0.66429  1.0000
  O   O85       1.0  0.05329  0.07598  0.41322  1.0000
  O   O86       1.0  0.05323  0.07599  0.91322  1.0000
  O   O87       1.0  0.05314  0.40937  0.41326  1.0000
  O   O88       1.0  0.05329  0.40925  0.91330  1.0000
  O   O89       1.0  0.05325  0.74265  0.41326  1.0000
  O   O90       1.0  0.05318  0.74270  0.91327  1.0000
  O   O91       1.0  0.55328  0.07596  0.41338  1.0000
  O   O92       1.0  0.55321  0.07597  0.91332  1.0000
  O   O93       1.0  0.55319  0.40936  0.41329  1.0000
  O   O94       1.0  0.55332  0.40928  0.91332  1.0000
  O   O95       1.0  0.55327  0.74263  0.41332  1.0000
  O   O96       1.0  0.55325  0.74263  0.91330  1.0000
