data_image0
_chemical_formula_structural       Ba24Si24O72
_chemical_formula_sum              "Ba24 Si24 O72"
_cell_length_a       15.0747
_cell_length_b       13.0172
_cell_length_c       11.4005
_cell_angle_alpha    68.2344
_cell_angle_beta     90
_cell_angle_gamma    90

_space_group_name_H-M_alt    "P 1"
_space_group_IT_number       1

loop_
  _space_group_symop_operation_xyz
  'x, y, z'

loop_
  _atom_site_type_symbol
  _atom_site_label
  _atom_site_symmetry_multiplicity
  _atom_site_fract_x
  _atom_site_fract_y
  _atom_site_fract_z
  _atom_site_occupancy
  Ba  Ba1       1.0  0.87539  0.25025  0.50041  1.0000
  Ba  Ba2       1.0  0.37535  0.25014  0.50046  1.0000
  Ba  Ba3       1.0  0.12534  0.75019  0.50063  1.0000
  Ba  Ba4       1.0  0.62530  0.75022  0.50049  1.0000
  Ba  Ba5       1.0  0.86896  0.58811  0.50151  1.0000
  Ba  Ba6       1.0  0.36899  0.58808  0.50141  1.0000
  Ba  Ba7       1.0  0.11910  0.08828  0.50133  1.0000
  Ba  Ba8       1.0  0.61904  0.08816  0.50149  1.0000
  Ba  Ba9       1.0  0.86900  0.41218  0.99952  1.0000
  Ba  Ba10      1.0  0.36898  0.41218  0.99952  1.0000
  Ba  Ba11      1.0  0.11907  0.91223  0.99950  1.0000
  Ba  Ba12      1.0  0.61900  0.91221  0.99950  1.0000
  Ba  Ba13      1.0  0.13172  0.58815  0.00147  1.0000
  Ba  Ba14      1.0  0.63162  0.58825  0.00150  1.0000
  Ba  Ba15      1.0  0.38168  0.08812  0.00149  1.0000
  Ba  Ba16      1.0  0.88164  0.08818  0.00147  1.0000
  Ba  Ba17      1.0  0.13166  0.41233  0.49948  1.0000
  Ba  Ba18      1.0  0.63164  0.41212  0.49957  1.0000
  Ba  Ba19      1.0  0.38177  0.91206  0.49954  1.0000
  Ba  Ba20      1.0  0.88166  0.91221  0.49957  1.0000
  Ba  Ba21      1.0  0.12535  0.25007  0.00047  1.0000
  Ba  Ba22      1.0  0.62523  0.25030  0.00054  1.0000
  Ba  Ba23      1.0  0.37529  0.75023  0.00052  1.0000
  Ba  Ba24      1.0  0.87539  0.75024  0.00050  1.0000
  Si  Si1       1.0  0.98191  0.61897  0.75418  1.0000
  Si  Si2       1.0  0.48181  0.61893  0.75401  1.0000
  Si  Si3       1.0  0.23193  0.11910  0.75387  1.0000
  Si  Si4       1.0  0.73193  0.11901  0.75404  1.0000
  Si  Si5       1.0  0.16075  0.50014  0.75061  1.0000
  Si  Si6       1.0  0.66069  0.50018  0.75051  1.0000
  Si  Si7       1.0  0.41080  0.00017  0.75052  1.0000
  Si  Si8       1.0  0.91081  0.00024  0.75050  1.0000
  Si  Si9       1.0  0.01882  0.61904  0.25397  1.0000
  Si  Si10      1.0  0.51883  0.61898  0.25409  1.0000
  Si  Si11      1.0  0.26888  0.11894  0.25410  1.0000
  Si  Si12      1.0  0.76877  0.11898  0.25403  1.0000
  Si  Si13      1.0  0.98181  0.38148  0.74696  1.0000
  Si  Si14      1.0  0.48180  0.38141  0.74692  1.0000
  Si  Si15      1.0  0.23187  0.88157  0.74683  1.0000
  Si  Si16      1.0  0.73186  0.88150  0.74696  1.0000
  Si  Si17      1.0  0.83993  0.50023  0.25035  1.0000
  Si  Si18      1.0  0.33995  0.50020  0.25050  1.0000
  Si  Si19      1.0  0.08994  0.00013  0.25057  1.0000
  Si  Si20      1.0  0.58991  0.00027  0.25043  1.0000
  Si  Si21      1.0  0.01886  0.38152  0.24687  1.0000
  Si  Si22      1.0  0.51881  0.38142  0.24705  1.0000
  Si  Si23      1.0  0.26886  0.88145  0.24703  1.0000
  Si  Si24      1.0  0.76876  0.88144  0.24691  1.0000
  O   O1        1.0  0.95643  0.71470  0.62213  1.0000
  O   O2        1.0  0.45642  0.71462  0.62188  1.0000
  O   O3        1.0  0.20647  0.21487  0.62186  1.0000
  O   O4        1.0  0.70655  0.21463  0.62183  1.0000
  O   O5        1.0  0.95659  0.62531  0.88767  1.0000
  O   O6        1.0  0.45641  0.62522  0.88754  1.0000
  O   O7        1.0  0.20651  0.12526  0.88742  1.0000
  O   O8        1.0  0.70650  0.12546  0.88745  1.0000
  O   O9        1.0  0.09219  0.60078  0.75265  1.0000
  O   O10       1.0  0.59207  0.60080  0.75245  1.0000
  O   O11       1.0  0.34219  0.10083  0.75237  1.0000
  O   O12       1.0  0.84217  0.10079  0.75253  1.0000
  O   O13       1.0  0.04427  0.71473  0.12186  1.0000
  O   O14       1.0  0.54436  0.71462  0.12199  1.0000
  O   O15       1.0  0.29433  0.21466  0.12201  1.0000
  O   O16       1.0  0.79430  0.21456  0.12189  1.0000
  O   O17       1.0  0.04416  0.62528  0.38752  1.0000
  O   O18       1.0  0.54412  0.62533  0.38759  1.0000
  O   O19       1.0  0.29421  0.12524  0.38760  1.0000
  O   O20       1.0  0.79422  0.12537  0.38746  1.0000
  O   O21       1.0  0.21227  0.54490  0.61829  1.0000
  O   O22       1.0  0.71216  0.54482  0.61816  1.0000
  O   O23       1.0  0.46234  0.04481  0.61824  1.0000
  O   O24       1.0  0.96229  0.04484  0.61813  1.0000
  O   O25       1.0  0.94068  0.50018  0.75073  1.0000
  O   O26       1.0  0.44059  0.50020  0.75039  1.0000
  O   O27       1.0  0.19065  0.00040  0.75024  1.0000
  O   O28       1.0  0.69066  0.00022  0.75065  1.0000
  O   O29       1.0  0.21221  0.45539  0.88299  1.0000
  O   O30       1.0  0.71217  0.45556  0.88284  1.0000
  O   O31       1.0  0.46218  0.95542  0.88297  1.0000
  O   O32       1.0  0.96229  0.95552  0.88283  1.0000
  O   O33       1.0  0.90855  0.60080  0.25246  1.0000
  O   O34       1.0  0.40858  0.60081  0.25242  1.0000
  O   O35       1.0  0.15861  0.10074  0.25249  1.0000
  O   O36       1.0  0.65852  0.10083  0.25252  1.0000
  O   O37       1.0  0.09210  0.39961  0.74839  1.0000
  O   O38       1.0  0.59206  0.39955  0.74862  1.0000
  O   O39       1.0  0.34216  0.89965  0.74837  1.0000
  O   O40       1.0  0.84214  0.89964  0.74858  1.0000
  O   O41       1.0  0.78856  0.54482  0.11793  1.0000
  O   O42       1.0  0.28848  0.54486  0.11817  1.0000
  O   O43       1.0  0.03851  0.04474  0.11817  1.0000
  O   O44       1.0  0.53854  0.04505  0.11799  1.0000
  O   O45       1.0  0.06007  0.50029  0.25041  1.0000
  O   O46       1.0  0.56001  0.50011  0.25079  1.0000
  O   O47       1.0  0.31009  0.00015  0.25068  1.0000
  O   O48       1.0  0.80993  0.00012  0.25070  1.0000
  O   O49       1.0  0.78834  0.45556  0.38261  1.0000
  O   O50       1.0  0.28841  0.45561  0.38278  1.0000
  O   O51       1.0  0.03836  0.95564  0.38286  1.0000
  O   O52       1.0  0.53842  0.95558  0.38277  1.0000
  O   O53       1.0  0.95640  0.37549  0.61330  1.0000
  O   O54       1.0  0.45656  0.37523  0.61332  1.0000
  O   O55       1.0  0.20652  0.87524  0.61333  1.0000
  O   O56       1.0  0.70644  0.87535  0.61337  1.0000
  O   O57       1.0  0.95641  0.28562  0.87895  1.0000
  O   O58       1.0  0.45626  0.28566  0.87895  1.0000
  O   O59       1.0  0.20637  0.78584  0.87891  1.0000
  O   O60       1.0  0.70640  0.78575  0.87903  1.0000
  O   O61       1.0  0.90858  0.39957  0.24853  1.0000
  O   O62       1.0  0.40853  0.39954  0.24856  1.0000
  O   O63       1.0  0.15861  0.89950  0.24877  1.0000
  O   O64       1.0  0.65849  0.89963  0.24845  1.0000
  O   O65       1.0  0.04420  0.37525  0.11334  1.0000
  O   O66       1.0  0.54415  0.37535  0.11341  1.0000
  O   O67       1.0  0.29418  0.87535  0.11340  1.0000
  O   O68       1.0  0.79412  0.87538  0.11327  1.0000
  O   O69       1.0  0.04445  0.28582  0.37890  1.0000
  O   O70       1.0  0.54426  0.28560  0.37908  1.0000
  O   O71       1.0  0.29441  0.78570  0.37901  1.0000
  O   O72       1.0  0.79417  0.78559  0.37892  1.0000
