data_image0
_chemical_formula_structural       Hf32Bi32O128
_chemical_formula_sum              "Hf32 Bi32 O128"
_cell_length_a       10.8325
_cell_length_b       15.3919
_cell_length_c       15.4125
_cell_angle_alpha    98.207
_cell_angle_beta     91.4349
_cell_angle_gamma    92.7502

_space_group_name_H-M_alt    "P 1"
_space_group_IT_number       1

loop_
  _space_group_symop_operation_xyz
  'x, y, z'

loop_
  _atom_site_type_symbol
  _atom_site_label
  _atom_site_symmetry_multiplicity
  _atom_site_fract_x
  _atom_site_fract_y
  _atom_site_fract_z
  _atom_site_occupancy
  Hf  Hf1       1.0  0.39115  0.16285  0.31964  1.0000
  Hf  Hf2       1.0  0.39113  0.16289  0.81958  1.0000
  Hf  Hf3       1.0  0.39110  0.66286  0.31968  1.0000
  Hf  Hf4       1.0  0.39124  0.66278  0.81961  1.0000
  Hf  Hf5       1.0  0.89110  0.16281  0.31958  1.0000
  Hf  Hf6       1.0  0.89113  0.16277  0.81959  1.0000
  Hf  Hf7       1.0  0.89118  0.66285  0.31957  1.0000
  Hf  Hf8       1.0  0.89123  0.66289  0.81955  1.0000
  Hf  Hf9       1.0  0.37230  0.41206  0.33702  1.0000
  Hf  Hf10      1.0  0.37228  0.41204  0.83700  1.0000
  Hf  Hf11      1.0  0.37223  0.91209  0.33705  1.0000
  Hf  Hf12      1.0  0.37237  0.91198  0.83702  1.0000
  Hf  Hf13      1.0  0.87231  0.41204  0.33696  1.0000
  Hf  Hf14      1.0  0.87237  0.41204  0.83696  1.0000
  Hf  Hf15      1.0  0.87228  0.91205  0.33702  1.0000
  Hf  Hf16      1.0  0.87236  0.91207  0.83701  1.0000
  Hf  Hf17      1.0  0.12870  0.08870  0.16365  1.0000
  Hf  Hf18      1.0  0.12868  0.08868  0.66364  1.0000
  Hf  Hf19      1.0  0.12870  0.58871  0.16367  1.0000
  Hf  Hf20      1.0  0.12871  0.58870  0.66366  1.0000
  Hf  Hf21      1.0  0.62864  0.08870  0.16364  1.0000
  Hf  Hf22      1.0  0.62860  0.08870  0.66366  1.0000
  Hf  Hf23      1.0  0.62873  0.58869  0.16362  1.0000
  Hf  Hf24      1.0  0.62872  0.58872  0.66361  1.0000
  Hf  Hf25      1.0  0.10985  0.33784  0.18102  1.0000
  Hf  Hf26      1.0  0.10988  0.33786  0.68098  1.0000
  Hf  Hf27      1.0  0.10985  0.83790  0.18105  1.0000
  Hf  Hf28      1.0  0.10985  0.83791  0.68109  1.0000
  Hf  Hf29      1.0  0.60986  0.33792  0.18105  1.0000
  Hf  Hf30      1.0  0.60986  0.33794  0.68106  1.0000
  Hf  Hf31      1.0  0.60989  0.83788  0.18105  1.0000
  Hf  Hf32      1.0  0.60988  0.83785  0.68103  1.0000
  Bi  Bi1       1.0  0.13991  0.07455  0.40925  1.0000
  Bi  Bi2       1.0  0.14000  0.07446  0.90921  1.0000
  Bi  Bi3       1.0  0.13990  0.57450  0.40931  1.0000
  Bi  Bi4       1.0  0.13997  0.57456  0.90927  1.0000
  Bi  Bi5       1.0  0.63991  0.07450  0.40929  1.0000
  Bi  Bi6       1.0  0.63987  0.07455  0.90925  1.0000
  Bi  Bi7       1.0  0.63996  0.57452  0.40922  1.0000
  Bi  Bi8       1.0  0.64003  0.57446  0.90921  1.0000
  Bi  Bi9       1.0  0.12222  0.31737  0.43179  1.0000
  Bi  Bi10      1.0  0.12222  0.31733  0.93176  1.0000
  Bi  Bi11      1.0  0.12223  0.81739  0.43190  1.0000
  Bi  Bi12      1.0  0.12227  0.81736  0.93185  1.0000
  Bi  Bi13      1.0  0.62231  0.31742  0.43185  1.0000
  Bi  Bi14      1.0  0.62227  0.31744  0.93188  1.0000
  Bi  Bi15      1.0  0.62226  0.81741  0.43186  1.0000
  Bi  Bi16      1.0  0.62233  0.81740  0.93179  1.0000
  Bi  Bi17      1.0  0.37872  0.18340  0.06886  1.0000
  Bi  Bi18      1.0  0.37873  0.18334  0.56883  1.0000
  Bi  Bi19      1.0  0.37878  0.68331  0.06877  1.0000
  Bi  Bi20      1.0  0.37876  0.68339  0.56886  1.0000
  Bi  Bi21      1.0  0.87879  0.18327  0.06874  1.0000
  Bi  Bi22      1.0  0.87870  0.18331  0.56886  1.0000
  Bi  Bi23      1.0  0.87882  0.68331  0.06882  1.0000
  Bi  Bi24      1.0  0.87880  0.68336  0.56878  1.0000
  Bi  Bi25      1.0  0.36104  0.42623  0.09141  1.0000
  Bi  Bi26      1.0  0.36108  0.42625  0.59136  1.0000
  Bi  Bi27      1.0  0.36108  0.92616  0.09143  1.0000
  Bi  Bi28      1.0  0.36110  0.92620  0.59141  1.0000
  Bi  Bi29      1.0  0.86116  0.42615  0.09137  1.0000
  Bi  Bi30      1.0  0.86117  0.42622  0.59136  1.0000
  Bi  Bi31      1.0  0.86105  0.92619  0.09142  1.0000
  Bi  Bi32      1.0  0.86103  0.92624  0.59142  1.0000
  O   O1        1.0  0.49799  0.16048  0.44201  1.0000
  O   O2        1.0  0.49804  0.16063  0.94200  1.0000
  O   O3        1.0  0.49800  0.66045  0.44203  1.0000
  O   O4        1.0  0.49815  0.66047  0.94200  1.0000
  O   O5        1.0  0.99808  0.16059  0.44198  1.0000
  O   O6        1.0  0.99808  0.16045  0.94195  1.0000
  O   O7        1.0  0.99812  0.66059  0.44202  1.0000
  O   O8        1.0  0.99821  0.66069  0.94202  1.0000
  O   O9        1.0  0.25139  0.19365  0.40531  1.0000
  O   O10       1.0  0.25130  0.19356  0.90517  1.0000
  O   O11       1.0  0.25131  0.69363  0.40531  1.0000
  O   O12       1.0  0.25153  0.69357  0.90542  1.0000
  O   O13       1.0  0.75124  0.19360  0.40521  1.0000
  O   O14       1.0  0.75135  0.19364  0.90527  1.0000
  O   O15       1.0  0.75135  0.69360  0.40517  1.0000
  O   O16       1.0  0.75135  0.69358  0.90516  1.0000
  O   O17       1.0  0.29689  0.41312  0.46088  1.0000
  O   O18       1.0  0.29689  0.41294  0.96089  1.0000
  O   O19       1.0  0.29678  0.91317  0.46093  1.0000
  O   O20       1.0  0.29700  0.91292  0.96090  1.0000
  O   O21       1.0  0.79700  0.41301  0.46087  1.0000
  O   O22       1.0  0.79710  0.41294  0.96086  1.0000
  O   O23       1.0  0.79693  0.91301  0.46091  1.0000
  O   O24       1.0  0.79704  0.91289  0.96087  1.0000
  O   O25       1.0  0.30383  0.03618  0.34139  1.0000
  O   O26       1.0  0.30403  0.03612  0.84153  1.0000
  O   O27       1.0  0.30381  0.53614  0.34153  1.0000
  O   O28       1.0  0.30385  0.53615  0.84145  1.0000
  O   O29       1.0  0.80381  0.03610  0.34149  1.0000
  O   O30       1.0  0.80375  0.03612  0.84145  1.0000
  O   O31       1.0  0.80389  0.53612  0.34143  1.0000
  O   O32       1.0  0.80404  0.53615  0.84150  1.0000
  O   O33       1.0  0.04015  0.45515  0.40530  1.0000
  O   O34       1.0  0.04026  0.45517  0.90525  1.0000
  O   O35       1.0  0.04017  0.95522  0.40529  1.0000
  O   O36       1.0  0.04027  0.95512  0.90533  1.0000
  O   O37       1.0  0.54028  0.45514  0.40524  1.0000
  O   O38       1.0  0.54016  0.45517  0.90543  1.0000
  O   O39       1.0  0.54012  0.95515  0.40538  1.0000
  O   O40       1.0  0.54025  0.95515  0.90534  1.0000
  O   O41       1.0  0.44834  0.29022  0.33690  1.0000
  O   O42       1.0  0.44841  0.29024  0.83686  1.0000
  O   O43       1.0  0.44832  0.79024  0.33697  1.0000
  O   O44       1.0  0.44850  0.79017  0.83677  1.0000
  O   O45       1.0  0.94839  0.29017  0.33676  1.0000
  O   O46       1.0  0.94830  0.29015  0.83673  1.0000
  O   O47       1.0  0.94835  0.79021  0.33684  1.0000
  O   O48       1.0  0.94854  0.79027  0.83675  1.0000
  O   O49       1.0  0.04881  0.09193  0.28425  1.0000
  O   O50       1.0  0.04884  0.09186  0.78429  1.0000
  O   O51       1.0  0.04886  0.59188  0.28431  1.0000
  O   O52       1.0  0.04893  0.59200  0.78428  1.0000
  O   O53       1.0  0.54896  0.09197  0.28431  1.0000
  O   O54       1.0  0.54875  0.09187  0.78425  1.0000
  O   O55       1.0  0.54893  0.59201  0.28426  1.0000
  O   O56       1.0  0.54888  0.59180  0.78425  1.0000
  O   O57       1.0  0.29361  0.15159  0.20567  1.0000
  O   O58       1.0  0.29355  0.15160  0.70562  1.0000
  O   O59       1.0  0.29368  0.65148  0.20565  1.0000
  O   O60       1.0  0.29364  0.65150  0.70567  1.0000
  O   O61       1.0  0.79370  0.15139  0.20556  1.0000
  O   O62       1.0  0.79359  0.15144  0.70562  1.0000
  O   O63       1.0  0.79371  0.65152  0.20557  1.0000
  O   O64       1.0  0.79371  0.65152  0.70555  1.0000
  O   O65       1.0  0.20743  0.34918  0.29499  1.0000
  O   O66       1.0  0.20742  0.34918  0.79496  1.0000
  O   O67       1.0  0.20732  0.84922  0.29507  1.0000
  O   O68       1.0  0.20742  0.84919  0.79503  1.0000
  O   O69       1.0  0.70736  0.34920  0.29502  1.0000
  O   O70       1.0  0.70728  0.34937  0.79506  1.0000
  O   O71       1.0  0.70731  0.84925  0.29506  1.0000
  O   O72       1.0  0.70740  0.84921  0.79500  1.0000
  O   O73       1.0  0.45214  0.40885  0.21639  1.0000
  O   O74       1.0  0.45210  0.40879  0.71639  1.0000
  O   O75       1.0  0.45216  0.90881  0.21645  1.0000
  O   O76       1.0  0.45222  0.90882  0.71636  1.0000
  O   O77       1.0  0.95217  0.40879  0.21634  1.0000
  O   O78       1.0  0.95226  0.40891  0.71636  1.0000
  O   O79       1.0  0.95212  0.90881  0.21640  1.0000
  O   O80       1.0  0.95217  0.90893  0.71640  1.0000
  O   O81       1.0  0.05258  0.21049  0.16371  1.0000
  O   O82       1.0  0.05254  0.21051  0.66380  1.0000
  O   O83       1.0  0.05261  0.71050  0.16380  1.0000
  O   O84       1.0  0.05258  0.71055  0.66381  1.0000
  O   O85       1.0  0.55260  0.21053  0.16385  1.0000
  O   O86       1.0  0.55265  0.21055  0.66390  1.0000
  O   O87       1.0  0.55279  0.71051  0.16372  1.0000
  O   O88       1.0  0.55262  0.71050  0.66387  1.0000
  O   O89       1.0  0.46065  0.04560  0.09545  1.0000
  O   O90       1.0  0.46070  0.04560  0.59539  1.0000
  O   O91       1.0  0.46078  0.54559  0.09539  1.0000
  O   O92       1.0  0.46075  0.54561  0.59538  1.0000
  O   O93       1.0  0.96077  0.04553  0.09537  1.0000
  O   O94       1.0  0.96070  0.04562  0.59536  1.0000
  O   O95       1.0  0.96080  0.54554  0.09534  1.0000
  O   O96       1.0  0.96086  0.54561  0.59519  1.0000
  O   O97       1.0  0.19714  0.46457  0.15919  1.0000
  O   O98       1.0  0.19708  0.46462  0.65916  1.0000
  O   O99       1.0  0.19710  0.96456  0.15921  1.0000
  O   O100      1.0  0.19725  0.96467  0.65925  1.0000
  O   O101      1.0  0.69721  0.46460  0.15912  1.0000
  O   O102      1.0  0.69727  0.46466  0.65917  1.0000
  O   O103      1.0  0.69707  0.96457  0.15916  1.0000
  O   O104      1.0  0.69715  0.96460  0.65917  1.0000
  O   O105      1.0  0.20406  0.08781  0.03980  1.0000
  O   O106      1.0  0.20403  0.08787  0.53978  1.0000
  O   O107      1.0  0.20407  0.58767  0.03980  1.0000
  O   O108      1.0  0.20409  0.58785  0.53983  1.0000
  O   O109      1.0  0.70405  0.08769  0.03976  1.0000
  O   O110      1.0  0.70403  0.08775  0.53982  1.0000
  O   O111      1.0  0.70419  0.58772  0.03973  1.0000
  O   O112      1.0  0.70404  0.58778  0.53977  1.0000
  O   O113      1.0  0.24965  0.30711  0.09537  1.0000
  O   O114      1.0  0.24970  0.30714  0.59535  1.0000
  O   O115      1.0  0.24974  0.80707  0.09544  1.0000
  O   O116      1.0  0.24968  0.80718  0.59546  1.0000
  O   O117      1.0  0.74972  0.30713  0.09546  1.0000
  O   O118      1.0  0.74974  0.30714  0.59544  1.0000
  O   O119      1.0  0.74977  0.80713  0.09548  1.0000
  O   O120      1.0  0.74962  0.80709  0.59535  1.0000
  O   O121      1.0  0.00303  0.34010  0.05858  1.0000
  O   O122      1.0  0.00303  0.34020  0.55859  1.0000
  O   O123      1.0  0.00308  0.84029  0.05865  1.0000
  O   O124      1.0  0.00302  0.84031  0.55871  1.0000
  O   O125      1.0  0.50287  0.34012  0.05867  1.0000
  O   O126      1.0  0.50303  0.34031  0.55865  1.0000
  O   O127      1.0  0.50301  0.84022  0.05864  1.0000
  O   O128      1.0  0.50282  0.84007  0.55861  1.0000
