data_image0
_chemical_formula_structural       Ca24Ta16O64
_chemical_formula_sum              "Ca24 Ta16 O64"
_cell_length_a       11.6915
_cell_length_b       11.691
_cell_length_c       10.0484
_cell_angle_alpha    90.002
_cell_angle_beta     89.9993
_cell_angle_gamma    90.0016

_space_group_name_H-M_alt    "P 1"
_space_group_IT_number       1

loop_
  _space_group_symop_operation_xyz
  'x, y, z'

loop_
  _atom_site_type_symbol
  _atom_site_label
  _atom_site_symmetry_multiplicity
  _atom_site_fract_x
  _atom_site_fract_y
  _atom_site_fract_z
  _atom_site_occupancy
  Ca  Ca1       1.0  0.12810  0.29902  0.47470  1.0000
  Ca  Ca2       1.0  0.62816  0.79900  0.97469  1.0000
  Ca  Ca3       1.0  0.00042  0.50039  0.25050  1.0000
  Ca  Ca4       1.0  0.50042  0.00041  0.75053  1.0000
  Ca  Ca5       1.0  0.50041  0.00033  0.25042  1.0000
  Ca  Ca6       1.0  0.00040  0.50038  0.75044  1.0000
  Ca  Ca7       1.0  0.20176  0.62807  0.02625  1.0000
  Ca  Ca8       1.0  0.70172  0.12810  0.52618  1.0000
  Ca  Ca9       1.0  0.20174  0.12810  0.72474  1.0000
  Ca  Ca10      1.0  0.70174  0.62812  0.22473  1.0000
  Ca  Ca11      1.0  0.37267  0.20169  0.97475  1.0000
  Ca  Ca12      1.0  0.87271  0.70175  0.47465  1.0000
  Ca  Ca13      1.0  0.62813  0.29903  0.77619  1.0000
  Ca  Ca14      1.0  0.12815  0.79900  0.27627  1.0000
  Ca  Ca15      1.0  0.29911  0.87264  0.52622  1.0000
  Ca  Ca16      1.0  0.79902  0.37268  0.02624  1.0000
  Ca  Ca17      1.0  0.29902  0.37268  0.22466  1.0000
  Ca  Ca18      1.0  0.79906  0.87264  0.72465  1.0000
  Ca  Ca19      1.0  0.00047  0.00039  0.50056  1.0000
  Ca  Ca20      1.0  0.50043  0.50038  0.00047  1.0000
  Ca  Ca21      1.0  0.00042  0.00036  0.00047  1.0000
  Ca  Ca22      1.0  0.50040  0.50037  0.50048  1.0000
  Ca  Ca23      1.0  0.87268  0.20170  0.27622  1.0000
  Ca  Ca24      1.0  0.37267  0.70168  0.77623  1.0000
  Ta  Ta1       1.0  0.19441  0.08116  0.25103  1.0000
  Ta  Ta2       1.0  0.69444  0.58117  0.75098  1.0000
  Ta  Ta3       1.0  0.69445  0.08116  0.99996  1.0000
  Ta  Ta4       1.0  0.19444  0.58115  0.49999  1.0000
  Ta  Ta5       1.0  0.91962  0.19440  0.74999  1.0000
  Ta  Ta6       1.0  0.41962  0.69438  0.25000  1.0000
  Ta  Ta7       1.0  0.41960  0.19439  0.50096  1.0000
  Ta  Ta8       1.0  0.91965  0.69439  0.00097  1.0000
  Ta  Ta9       1.0  0.58117  0.30636  0.24993  1.0000
  Ta  Ta10      1.0  0.08122  0.80633  0.74997  1.0000
  Ta  Ta11      1.0  0.08118  0.30635  0.00102  1.0000
  Ta  Ta12      1.0  0.58122  0.80637  0.50101  1.0000
  Ta  Ta13      1.0  0.30638  0.41953  0.75100  1.0000
  Ta  Ta14      1.0  0.80642  0.91957  0.25098  1.0000
  Ta  Ta15      1.0  0.80638  0.41958  0.49992  1.0000
  Ta  Ta16      1.0  0.30636  0.91958  0.99999  1.0000
  O   O1        1.0  0.03948  0.18826  0.62073  1.0000
  O   O2        1.0  0.53947  0.68826  0.12071  1.0000
  O   O3        1.0  0.46058  0.84817  0.36538  1.0000
  O   O4        1.0  0.96059  0.34818  0.86536  1.0000
  O   O5        1.0  0.46057  0.34815  0.38556  1.0000
  O   O6        1.0  0.96057  0.84813  0.88559  1.0000
  O   O7        1.0  0.94574  0.36342  0.43170  1.0000
  O   O8        1.0  0.44578  0.86348  0.93179  1.0000
  O   O9        1.0  0.18828  0.46130  0.37073  1.0000
  O   O10       1.0  0.68829  0.96131  0.87068  1.0000
  O   O11       1.0  0.65267  0.96050  0.13558  1.0000
  O   O12       1.0  0.15262  0.46054  0.63563  1.0000
  O   O13       1.0  0.34817  0.04024  0.13562  1.0000
  O   O14       1.0  0.84821  0.54022  0.63556  1.0000
  O   O15       1.0  0.36347  0.55505  0.18170  1.0000
  O   O16       1.0  0.86350  0.05505  0.68172  1.0000
  O   O17       1.0  0.36349  0.05501  0.56923  1.0000
  O   O18       1.0  0.86351  0.55503  0.06922  1.0000
  O   O19       1.0  0.81256  0.53944  0.37066  1.0000
  O   O20       1.0  0.31251  0.03943  0.87070  1.0000
  O   O21       1.0  0.55505  0.13724  0.93169  1.0000
  O   O22       1.0  0.05510  0.63730  0.43172  1.0000
  O   O23       1.0  0.78893  0.18750  0.89561  1.0000
  O   O24       1.0  0.28901  0.68743  0.39565  1.0000
  O   O25       1.0  0.28894  0.18749  0.35535  1.0000
  O   O26       1.0  0.78899  0.68748  0.85531  1.0000
  O   O27       1.0  0.03946  0.68824  0.13022  1.0000
  O   O28       1.0  0.53949  0.18825  0.63020  1.0000
  O   O29       1.0  0.18746  0.21178  0.10534  1.0000
  O   O30       1.0  0.68755  0.71179  0.60529  1.0000
  O   O31       1.0  0.68746  0.21178  0.14560  1.0000
  O   O32       1.0  0.18755  0.71180  0.64562  1.0000
  O   O33       1.0  0.31329  0.28894  0.60533  1.0000
  O   O34       1.0  0.81332  0.78891  0.10530  1.0000
  O   O35       1.0  0.81334  0.28895  0.64560  1.0000
  O   O36       1.0  0.31331  0.78899  0.14571  1.0000
  O   O37       1.0  0.46134  0.31256  0.12067  1.0000
  O   O38       1.0  0.96139  0.81250  0.62070  1.0000
  O   O39       1.0  0.21181  0.31325  0.85534  1.0000
  O   O40       1.0  0.71184  0.81332  0.35531  1.0000
  O   O41       1.0  0.71181  0.31327  0.39560  1.0000
  O   O42       1.0  0.21185  0.81325  0.89564  1.0000
  O   O43       1.0  0.44573  0.36340  0.81922  1.0000
  O   O44       1.0  0.94576  0.86344  0.31929  1.0000
  O   O45       1.0  0.18824  0.96133  0.38030  1.0000
  O   O46       1.0  0.68826  0.46132  0.88022  1.0000
  O   O47       1.0  0.13735  0.44570  0.06925  1.0000
  O   O48       1.0  0.63738  0.94572  0.56928  1.0000
  O   O49       1.0  0.13736  0.94570  0.68174  1.0000
  O   O50       1.0  0.63733  0.44573  0.18167  1.0000
  O   O51       1.0  0.15262  0.96049  0.11541  1.0000
  O   O52       1.0  0.65264  0.46052  0.61532  1.0000
  O   O53       1.0  0.84819  0.04023  0.11533  1.0000
  O   O54       1.0  0.34818  0.54017  0.61535  1.0000
  O   O55       1.0  0.31255  0.53940  0.88027  1.0000
  O   O56       1.0  0.81255  0.03944  0.38024  1.0000
  O   O57       1.0  0.05506  0.13732  0.31925  1.0000
  O   O58       1.0  0.55506  0.63730  0.81921  1.0000
  O   O59       1.0  0.54018  0.15258  0.36531  1.0000
  O   O60       1.0  0.04028  0.65259  0.86533  1.0000
  O   O61       1.0  0.54023  0.65260  0.38559  1.0000
  O   O62       1.0  0.04021  0.15261  0.88560  1.0000
  O   O63       1.0  0.96133  0.31253  0.13025  1.0000
  O   O64       1.0  0.46135  0.81253  0.63028  1.0000
