data_image0
_chemical_formula_structural       K32Mg16O32
_chemical_formula_sum              "K32 Mg16 O32"
_cell_length_a       10.8685
_cell_length_b       11.9383
_cell_length_c       10.3983
_cell_angle_alpha    90.0035
_cell_angle_beta     89.9886
_cell_angle_gamma    89.9923

_space_group_name_H-M_alt    "P 1"
_space_group_IT_number       1

loop_
  _space_group_symop_operation_xyz
  'x, y, z'

loop_
  _atom_site_type_symbol
  _atom_site_label
  _atom_site_symmetry_multiplicity
  _atom_site_fract_x
  _atom_site_fract_y
  _atom_site_fract_z
  _atom_site_occupancy
  K   K1        1.0  0.48400  0.18788  0.15540  1.0000
  K   K2        1.0  0.48431  0.68806  0.15559  1.0000
  K   K3        1.0  0.98396  0.18799  0.15543  1.0000
  K   K4        1.0  0.98427  0.68812  0.15550  1.0000
  K   K5        1.0  0.23404  0.31283  0.15528  1.0000
  K   K6        1.0  0.23413  0.81295  0.15523  1.0000
  K   K7        1.0  0.73392  0.31284  0.15529  1.0000
  K   K8        1.0  0.73414  0.81295  0.15523  1.0000
  K   K9        1.0  0.23398  0.06274  0.34560  1.0000
  K   K10       1.0  0.23413  0.56279  0.34569  1.0000
  K   K11       1.0  0.73395  0.06265  0.34572  1.0000
  K   K12       1.0  0.73412  0.56276  0.34564  1.0000
  K   K13       1.0  0.48412  0.43803  0.34575  1.0000
  K   K14       1.0  0.48389  0.93794  0.34550  1.0000
  K   K15       1.0  0.98413  0.43795  0.34566  1.0000
  K   K16       1.0  0.98400  0.93803  0.34564  1.0000
  K   K17       1.0  0.01713  0.06263  0.65523  1.0000
  K   K18       1.0  0.01730  0.56274  0.65534  1.0000
  K   K19       1.0  0.51723  0.06273  0.65528  1.0000
  K   K20       1.0  0.51725  0.56273  0.65539  1.0000
  K   K21       1.0  0.26721  0.43805  0.65540  1.0000
  K   K22       1.0  0.26725  0.93803  0.65533  1.0000
  K   K23       1.0  0.76730  0.43813  0.65545  1.0000
  K   K24       1.0  0.76704  0.93792  0.65539  1.0000
  K   K25       1.0  0.26701  0.18816  0.84549  1.0000
  K   K26       1.0  0.26700  0.68814  0.84559  1.0000
  K   K27       1.0  0.76700  0.18820  0.84551  1.0000
  K   K28       1.0  0.76715  0.68818  0.84560  1.0000
  K   K29       1.0  0.01691  0.31280  0.84579  1.0000
  K   K30       1.0  0.01706  0.81277  0.84561  1.0000
  K   K31       1.0  0.51685  0.31284  0.84585  1.0000
  K   K32       1.0  0.51710  0.81255  0.84573  1.0000
  Mg  Mg1       1.0  0.12538  0.00424  0.00027  1.0000
  Mg  Mg2       1.0  0.12537  0.50432  0.00042  1.0000
  Mg  Mg3       1.0  0.62537  0.00417  0.00027  1.0000
  Mg  Mg4       1.0  0.62537  0.50436  0.00043  1.0000
  Mg  Mg5       1.0  0.37537  0.49689  0.00057  1.0000
  Mg  Mg6       1.0  0.37538  0.99664  0.00020  1.0000
  Mg  Mg7       1.0  0.87537  0.49685  0.00051  1.0000
  Mg  Mg8       1.0  0.87538  0.99676  0.00035  1.0000
  Mg  Mg9       1.0  0.37571  0.24658  0.50057  1.0000
  Mg  Mg10      1.0  0.37569  0.74663  0.50066  1.0000
  Mg  Mg11      1.0  0.87570  0.24664  0.50059  1.0000
  Mg  Mg12      1.0  0.87568  0.74657  0.50055  1.0000
  Mg  Mg13      1.0  0.12571  0.25412  0.50056  1.0000
  Mg  Mg14      1.0  0.12568  0.75416  0.50052  1.0000
  Mg  Mg15      1.0  0.62571  0.25415  0.50059  1.0000
  Mg  Mg16      1.0  0.62568  0.75413  0.50055  1.0000
  O   O1        1.0  0.00258  0.41062  0.09476  1.0000
  O   O2        1.0  0.00261  0.91063  0.09471  1.0000
  O   O3        1.0  0.50258  0.41068  0.09486  1.0000
  O   O4        1.0  0.50257  0.91043  0.09453  1.0000
  O   O5        1.0  0.25264  0.09036  0.09459  1.0000
  O   O6        1.0  0.25241  0.59061  0.09477  1.0000
  O   O7        1.0  0.75248  0.09041  0.09466  1.0000
  O   O8        1.0  0.75247  0.59063  0.09471  1.0000
  O   O9        1.0  0.00289  0.16045  0.40622  1.0000
  O   O10       1.0  0.00293  0.66034  0.40630  1.0000
  O   O11       1.0  0.50294  0.16039  0.40625  1.0000
  O   O12       1.0  0.50286  0.66041  0.40634  1.0000
  O   O13       1.0  0.25296  0.34032  0.40624  1.0000
  O   O14       1.0  0.25294  0.84033  0.40622  1.0000
  O   O15       1.0  0.75294  0.34038  0.40628  1.0000
  O   O16       1.0  0.75293  0.84026  0.40615  1.0000
  O   O17       1.0  0.24846  0.16035  0.59475  1.0000
  O   O18       1.0  0.24843  0.66048  0.59488  1.0000
  O   O19       1.0  0.74847  0.16040  0.59479  1.0000
  O   O20       1.0  0.74843  0.66044  0.59486  1.0000
  O   O21       1.0  0.49845  0.34031  0.59490  1.0000
  O   O22       1.0  0.49850  0.84037  0.59486  1.0000
  O   O23       1.0  0.99851  0.34034  0.59489  1.0000
  O   O24       1.0  0.99841  0.84034  0.59476  1.0000
  O   O25       1.0  0.49814  0.09040  0.90598  1.0000
  O   O26       1.0  0.49812  0.59054  0.90619  1.0000
  O   O27       1.0  0.99812  0.09049  0.90603  1.0000
  O   O28       1.0  0.99813  0.59052  0.90613  1.0000
  O   O29       1.0  0.24831  0.41063  0.90621  1.0000
  O   O30       1.0  0.24812  0.91048  0.90596  1.0000
  O   O31       1.0  0.74825  0.41062  0.90621  1.0000
  O   O32       1.0  0.74825  0.91049  0.90607  1.0000
