data_image0
_chemical_formula_structural       Cs32Ba32O48
_chemical_formula_sum              "Cs32 Ba32 O48"
_cell_length_a       15.5161
_cell_length_b       15.4036
_cell_length_c       13.3106
_cell_angle_alpha    92.5685
_cell_angle_beta     89.993
_cell_angle_gamma    90.0086

_space_group_name_H-M_alt    "P 1"
_space_group_IT_number       1

loop_
  _space_group_symop_operation_xyz
  'x, y, z'

loop_
  _atom_site_type_symbol
  _atom_site_label
  _atom_site_symmetry_multiplicity
  _atom_site_fract_x
  _atom_site_fract_y
  _atom_site_fract_z
  _atom_site_occupancy
  Cs  Cs1       1.0  0.17268  0.08261  0.07910  1.0000
  Cs  Cs2       1.0  0.17266  0.33269  0.57922  1.0000
  Cs  Cs3       1.0  0.17270  0.58268  0.07915  1.0000
  Cs  Cs4       1.0  0.17257  0.83262  0.57911  1.0000
  Cs  Cs5       1.0  0.67276  0.08260  0.07896  1.0000
  Cs  Cs6       1.0  0.67256  0.33269  0.57915  1.0000
  Cs  Cs7       1.0  0.67269  0.58263  0.07910  1.0000
  Cs  Cs8       1.0  0.67261  0.83271  0.57929  1.0000
  Cs  Cs9       1.0  0.07792  0.33272  0.07903  1.0000
  Cs  Cs10      1.0  0.07795  0.58259  0.57909  1.0000
  Cs  Cs11      1.0  0.07797  0.83270  0.07917  1.0000
  Cs  Cs12      1.0  0.07809  0.08271  0.57920  1.0000
  Cs  Cs13      1.0  0.57795  0.33258  0.07901  1.0000
  Cs  Cs14      1.0  0.57804  0.58271  0.57921  1.0000
  Cs  Cs15      1.0  0.57794  0.83270  0.07911  1.0000
  Cs  Cs16      1.0  0.57795  0.08264  0.57901  1.0000
  Cs  Cs17      1.0  0.42271  0.41810  0.42169  1.0000
  Cs  Cs18      1.0  0.42270  0.66806  0.92173  1.0000
  Cs  Cs19      1.0  0.42264  0.91801  0.42154  1.0000
  Cs  Cs20      1.0  0.42265  0.16807  0.92154  1.0000
  Cs  Cs21      1.0  0.92264  0.41797  0.42155  1.0000
  Cs  Cs22      1.0  0.92266  0.66809  0.92154  1.0000
  Cs  Cs23      1.0  0.92261  0.91810  0.42160  1.0000
  Cs  Cs24      1.0  0.92268  0.16805  0.92169  1.0000
  Cs  Cs25      1.0  0.32798  0.66806  0.42163  1.0000
  Cs  Cs26      1.0  0.32796  0.91799  0.92145  1.0000
  Cs  Cs27      1.0  0.32799  0.16803  0.42157  1.0000
  Cs  Cs28      1.0  0.32786  0.41809  0.92164  1.0000
  Cs  Cs29      1.0  0.82790  0.66809  0.42167  1.0000
  Cs  Cs30      1.0  0.82805  0.91796  0.92154  1.0000
  Cs  Cs31      1.0  0.82792  0.16806  0.42152  1.0000
  Cs  Cs32      1.0  0.82797  0.41805  0.92161  1.0000
  Ba  Ba1       1.0  0.31404  0.29924  0.16754  1.0000
  Ba  Ba2       1.0  0.31406  0.54925  0.66755  1.0000
  Ba  Ba3       1.0  0.31405  0.79920  0.16752  1.0000
  Ba  Ba4       1.0  0.31404  0.04922  0.66748  1.0000
  Ba  Ba5       1.0  0.81402  0.29927  0.16747  1.0000
  Ba  Ba6       1.0  0.81402  0.54917  0.66758  1.0000
  Ba  Ba7       1.0  0.81402  0.79924  0.16757  1.0000
  Ba  Ba8       1.0  0.81399  0.04928  0.66749  1.0000
  Ba  Ba9       1.0  0.06401  0.20143  0.33312  1.0000
  Ba  Ba10      1.0  0.06395  0.45149  0.83312  1.0000
  Ba  Ba11      1.0  0.06401  0.70141  0.33317  1.0000
  Ba  Ba12      1.0  0.06396  0.95153  0.83316  1.0000
  Ba  Ba13      1.0  0.56399  0.20148  0.33311  1.0000
  Ba  Ba14      1.0  0.56399  0.45148  0.83317  1.0000
  Ba  Ba15      1.0  0.56400  0.70149  0.33325  1.0000
  Ba  Ba16      1.0  0.56403  0.95152  0.83316  1.0000
  Ba  Ba17      1.0  0.43665  0.54919  0.16757  1.0000
  Ba  Ba18      1.0  0.43660  0.79924  0.66761  1.0000
  Ba  Ba19      1.0  0.43657  0.04924  0.16746  1.0000
  Ba  Ba20      1.0  0.43662  0.29923  0.66753  1.0000
  Ba  Ba21      1.0  0.93663  0.54929  0.16753  1.0000
  Ba  Ba22      1.0  0.93658  0.79925  0.66750  1.0000
  Ba  Ba23      1.0  0.93660  0.04926  0.16754  1.0000
  Ba  Ba24      1.0  0.93663  0.29912  0.66753  1.0000
  Ba  Ba25      1.0  0.18664  0.45140  0.33324  1.0000
  Ba  Ba26      1.0  0.18661  0.70151  0.83316  1.0000
  Ba  Ba27      1.0  0.18659  0.95140  0.33317  1.0000
  Ba  Ba28      1.0  0.18663  0.20148  0.83319  1.0000
  Ba  Ba29      1.0  0.68664  0.45151  0.33319  1.0000
  Ba  Ba30      1.0  0.68660  0.70146  0.83325  1.0000
  Ba  Ba31      1.0  0.68656  0.95147  0.33314  1.0000
  Ba  Ba32      1.0  0.68663  0.20147  0.83316  1.0000
  O   O1        1.0  0.25035  0.25041  0.00036  1.0000
  O   O2        1.0  0.25031  0.50031  0.50044  1.0000
  O   O3        1.0  0.25040  0.75032  0.00033  1.0000
  O   O4        1.0  0.25032  0.00025  0.50035  1.0000
  O   O5        1.0  0.75038  0.25033  0.00034  1.0000
  O   O6        1.0  0.75034  0.50034  0.50038  1.0000
  O   O7        1.0  0.75034  0.75031  0.00042  1.0000
  O   O8        1.0  0.75022  0.00036  0.50033  1.0000
  O   O9        1.0  0.00034  0.00035  0.00041  1.0000
  O   O10       1.0  0.00029  0.25017  0.50034  1.0000
  O   O11       1.0  0.00026  0.50046  0.00027  1.0000
  O   O12       1.0  0.00025  0.75026  0.50032  1.0000
  O   O13       1.0  0.50025  0.00039  0.00027  1.0000
  O   O14       1.0  0.50028  0.25035  0.50032  1.0000
  O   O15       1.0  0.50022  0.50026  0.00033  1.0000
  O   O16       1.0  0.50030  0.75036  0.50044  1.0000
  O   O17       1.0  0.45861  0.21878  0.18529  1.0000
  O   O18       1.0  0.45865  0.46875  0.68527  1.0000
  O   O19       1.0  0.45864  0.71873  0.18537  1.0000
  O   O20       1.0  0.45860  0.96876  0.68537  1.0000
  O   O21       1.0  0.95859  0.21881  0.18528  1.0000
  O   O22       1.0  0.95859  0.46864  0.68522  1.0000
  O   O23       1.0  0.95861  0.71883  0.18541  1.0000
  O   O24       1.0  0.95857  0.96883  0.68530  1.0000
  O   O25       1.0  0.20865  0.28185  0.31535  1.0000
  O   O26       1.0  0.20856  0.53195  0.81530  1.0000
  O   O27       1.0  0.20859  0.78186  0.31528  1.0000
  O   O28       1.0  0.20860  0.03192  0.81529  1.0000
  O   O29       1.0  0.70860  0.28195  0.31525  1.0000
  O   O30       1.0  0.70859  0.53194  0.81547  1.0000
  O   O31       1.0  0.70860  0.78194  0.31543  1.0000
  O   O32       1.0  0.70869  0.03194  0.81543  1.0000
  O   O33       1.0  0.29204  0.46879  0.18542  1.0000
  O   O34       1.0  0.29200  0.71876  0.68532  1.0000
  O   O35       1.0  0.29201  0.96869  0.18535  1.0000
  O   O36       1.0  0.29202  0.21877  0.68534  1.0000
  O   O37       1.0  0.79205  0.46884  0.18537  1.0000
  O   O38       1.0  0.79204  0.71872  0.68545  1.0000
  O   O39       1.0  0.79202  0.96877  0.18535  1.0000
  O   O40       1.0  0.79197  0.21881  0.68532  1.0000
  O   O41       1.0  0.04208  0.53183  0.31527  1.0000
  O   O42       1.0  0.04202  0.78199  0.81530  1.0000
  O   O43       1.0  0.04206  0.03190  0.31524  1.0000
  O   O44       1.0  0.04202  0.28193  0.81545  1.0000
  O   O45       1.0  0.54206  0.53196  0.31541  1.0000
  O   O46       1.0  0.54204  0.78197  0.81542  1.0000
  O   O47       1.0  0.54197  0.03193  0.31526  1.0000
  O   O48       1.0  0.54209  0.28196  0.81530  1.0000
