data_image0
_chemical_formula_structural       Cs54O54
_chemical_formula_sum              "Cs54 O54"
_cell_length_a       11.9111
_cell_length_b       15.0613
_cell_length_c       16.2567
_cell_angle_alpha    78.545
_cell_angle_beta     91.1106
_cell_angle_gamma    86.1938

_space_group_name_H-M_alt    "P 1"
_space_group_IT_number       1

loop_
  _space_group_symop_operation_xyz
  'x, y, z'

loop_
  _atom_site_type_symbol
  _atom_site_label
  _atom_site_symmetry_multiplicity
  _atom_site_fract_x
  _atom_site_fract_y
  _atom_site_fract_z
  _atom_site_occupancy
  Cs  Cs1       1.0  0.27724  0.08477  0.17707  1.0000
  Cs  Cs2       1.0  0.27754  0.08487  0.51032  1.0000
  Cs  Cs3       1.0  0.27749  0.08502  0.84359  1.0000
  Cs  Cs4       1.0  0.38853  0.41813  0.21409  1.0000
  Cs  Cs5       1.0  0.38843  0.41829  0.54739  1.0000
  Cs  Cs6       1.0  0.38861  0.41820  0.88074  1.0000
  Cs  Cs7       1.0  0.49947  0.75170  0.25114  1.0000
  Cs  Cs8       1.0  0.49935  0.75132  0.58469  1.0000
  Cs  Cs9       1.0  0.49941  0.75171  0.91794  1.0000
  Cs  Cs10      1.0  0.61050  0.08478  0.28834  1.0000
  Cs  Cs11      1.0  0.61075  0.08489  0.62169  1.0000
  Cs  Cs12      1.0  0.61076  0.08493  0.95480  1.0000
  Cs  Cs13      1.0  0.72175  0.41814  0.32545  1.0000
  Cs  Cs14      1.0  0.72149  0.41825  0.65874  1.0000
  Cs  Cs15      1.0  0.72177  0.41804  0.99198  1.0000
  Cs  Cs16      1.0  0.83305  0.75145  0.36235  1.0000
  Cs  Cs17      1.0  0.83280  0.75160  0.69566  1.0000
  Cs  Cs18      1.0  0.83285  0.75153  0.02913  1.0000
  Cs  Cs19      1.0  0.94410  0.08491  0.39938  1.0000
  Cs  Cs20      1.0  0.94414  0.08497  0.73262  1.0000
  Cs  Cs21      1.0  0.94416  0.08501  0.06590  1.0000
  Cs  Cs22      1.0  0.05491  0.41828  0.43636  1.0000
  Cs  Cs23      1.0  0.05489  0.41842  0.76953  1.0000
  Cs  Cs24      1.0  0.05532  0.41810  0.10316  1.0000
  Cs  Cs25      1.0  0.16622  0.75153  0.47348  1.0000
  Cs  Cs26      1.0  0.16634  0.75164  0.80684  1.0000
  Cs  Cs27      1.0  0.16648  0.75161  0.14002  1.0000
  Cs  Cs28      1.0  0.16767  0.24893  0.30483  1.0000
  Cs  Cs29      1.0  0.16786  0.24913  0.63812  1.0000
  Cs  Cs30      1.0  0.16813  0.24929  0.97137  1.0000
  Cs  Cs31      1.0  0.27893  0.58237  0.34202  1.0000
  Cs  Cs32      1.0  0.27907  0.58252  0.67535  1.0000
  Cs  Cs33      1.0  0.27901  0.58240  0.00866  1.0000
  Cs  Cs34      1.0  0.39004  0.91568  0.37887  1.0000
  Cs  Cs35      1.0  0.38995  0.91578  0.71237  1.0000
  Cs  Cs36      1.0  0.39029  0.91606  0.04553  1.0000
  Cs  Cs37      1.0  0.50119  0.24919  0.41593  1.0000
  Cs  Cs38      1.0  0.50127  0.24916  0.74935  1.0000
  Cs  Cs39      1.0  0.50132  0.24905  0.08267  1.0000
  Cs  Cs40      1.0  0.61212  0.58271  0.45283  1.0000
  Cs  Cs41      1.0  0.61243  0.58266  0.78651  1.0000
  Cs  Cs42      1.0  0.61215  0.58252  0.11962  1.0000
  Cs  Cs43      1.0  0.72342  0.91566  0.49026  1.0000
  Cs  Cs44      1.0  0.72343  0.91589  0.82329  1.0000
  Cs  Cs45      1.0  0.72356  0.91569  0.15694  1.0000
  Cs  Cs46      1.0  0.83467  0.24919  0.52706  1.0000
  Cs  Cs47      1.0  0.83480  0.24907  0.86042  1.0000
  Cs  Cs48      1.0  0.83452  0.24924  0.19371  1.0000
  Cs  Cs49      1.0  0.94547  0.58257  0.56409  1.0000
  Cs  Cs50      1.0  0.94562  0.58252  0.89763  1.0000
  Cs  Cs51      1.0  0.94547  0.58257  0.23076  1.0000
  Cs  Cs52      1.0  0.05698  0.91571  0.60125  1.0000
  Cs  Cs53      1.0  0.05666  0.91583  0.93465  1.0000
  Cs  Cs54      1.0  0.05668  0.91598  0.26778  1.0000
  O   O1        1.0  0.06912  0.20637  0.15025  1.0000
  O   O2        1.0  0.06920  0.20650  0.48390  1.0000
  O   O3        1.0  0.06931  0.20650  0.81681  1.0000
  O   O4        1.0  0.18011  0.53992  0.18735  1.0000
  O   O5        1.0  0.18037  0.53971  0.52053  1.0000
  O   O6        1.0  0.18007  0.53990  0.85414  1.0000
  O   O7        1.0  0.29133  0.87332  0.22433  1.0000
  O   O8        1.0  0.29156  0.87308  0.55779  1.0000
  O   O9        1.0  0.29148  0.87308  0.89103  1.0000
  O   O10       1.0  0.40216  0.20664  0.26149  1.0000
  O   O11       1.0  0.40257  0.20649  0.59477  1.0000
  O   O12       1.0  0.40238  0.20649  0.92810  1.0000
  O   O13       1.0  0.51350  0.53988  0.29840  1.0000
  O   O14       1.0  0.51334  0.54005  0.63179  1.0000
  O   O15       1.0  0.51364  0.53959  0.96518  1.0000
  O   O16       1.0  0.62461  0.87318  0.33564  1.0000
  O   O17       1.0  0.62442  0.87297  0.66879  1.0000
  O   O18       1.0  0.62493  0.87317  0.00216  1.0000
  O   O19       1.0  0.73596  0.20654  0.37249  1.0000
  O   O20       1.0  0.73569  0.20649  0.70580  1.0000
  O   O21       1.0  0.73565  0.20635  0.03920  1.0000
  O   O22       1.0  0.84676  0.54009  0.40965  1.0000
  O   O23       1.0  0.84668  0.53970  0.74291  1.0000
  O   O24       1.0  0.84679  0.53997  0.07628  1.0000
  O   O25       1.0  0.95815  0.87303  0.44653  1.0000
  O   O26       1.0  0.95813  0.87337  0.78006  1.0000
  O   O27       1.0  0.95817  0.87315  0.11318  1.0000
  O   O28       1.0  0.04289  0.12725  0.22042  1.0000
  O   O29       1.0  0.04268  0.12743  0.55400  1.0000
  O   O30       1.0  0.04292  0.12773  0.88727  1.0000
  O   O31       1.0  0.15372  0.46084  0.25750  1.0000
  O   O32       1.0  0.15366  0.46112  0.59104  1.0000
  O   O33       1.0  0.15405  0.46067  0.92426  1.0000
  O   O34       1.0  0.26500  0.79429  0.29455  1.0000
  O   O35       1.0  0.26495  0.79424  0.62812  1.0000
  O   O36       1.0  0.26496  0.79419  0.96132  1.0000
  O   O37       1.0  0.37618  0.12745  0.33166  1.0000
  O   O38       1.0  0.37624  0.12747  0.66501  1.0000
  O   O39       1.0  0.37625  0.12731  0.99825  1.0000
  O   O40       1.0  0.48727  0.46088  0.36869  1.0000
  O   O41       1.0  0.48722  0.46081  0.70187  1.0000
  O   O42       1.0  0.48721  0.46076  0.03556  1.0000
  O   O43       1.0  0.59824  0.79418  0.40589  1.0000
  O   O44       1.0  0.59842  0.79406  0.73922  1.0000
  O   O45       1.0  0.59819  0.79435  0.07246  1.0000
  O   O46       1.0  0.70955  0.12744  0.44260  1.0000
  O   O47       1.0  0.70956  0.12754  0.77616  1.0000
  O   O48       1.0  0.70951  0.12738  0.10955  1.0000
  O   O49       1.0  0.82058  0.46083  0.47969  1.0000
  O   O50       1.0  0.82023  0.46094  0.81337  1.0000
  O   O51       1.0  0.82057  0.46085  0.14646  1.0000
  O   O52       1.0  0.93185  0.79411  0.51687  1.0000
  O   O53       1.0  0.93168  0.79413  0.85003  1.0000
  O   O54       1.0  0.93178  0.79437  0.18361  1.0000
