data_image0
_chemical_formula_structural       Na48Li48O48
_chemical_formula_sum              "Na48 Li48 O48"
_cell_length_a       9.90981
_cell_length_b       11.4491
_cell_length_c       13.0432
_cell_angle_alpha    90
_cell_angle_beta     90
_cell_angle_gamma    90

_space_group_name_H-M_alt    "P 1"
_space_group_IT_number       1

loop_
  _space_group_symop_operation_xyz
  'x, y, z'

loop_
  _atom_site_type_symbol
  _atom_site_label
  _atom_site_symmetry_multiplicity
  _atom_site_fract_x
  _atom_site_fract_y
  _atom_site_fract_z
  _atom_site_occupancy
  Na  Na1       1.0  0.00087  0.50066  0.00067  1.0000
  Na  Na2       1.0  0.00043  0.50071  0.50080  1.0000
  Na  Na3       1.0  0.16750  0.75025  0.00011  1.0000
  Na  Na4       1.0  0.16728  0.75016  0.50009  1.0000
  Na  Na5       1.0  0.00084  0.00062  0.00071  1.0000
  Na  Na6       1.0  0.00006  0.00080  0.50091  1.0000
  Na  Na7       1.0  0.16734  0.25024  0.00012  1.0000
  Na  Na8       1.0  0.16736  0.25024  0.50010  1.0000
  Na  Na9       1.0  0.33371  0.50037  0.00019  1.0000
  Na  Na10      1.0  0.33372  0.50021  0.50021  1.0000
  Na  Na11      1.0  0.50030  0.75066  0.00098  1.0000
  Na  Na12      1.0  0.50066  0.75066  0.50077  1.0000
  Na  Na13      1.0  0.33350  0.00036  0.00014  1.0000
  Na  Na14      1.0  0.33342  0.00022  0.50007  1.0000
  Na  Na15      1.0  0.50046  0.25055  0.00073  1.0000
  Na  Na16      1.0  0.50041  0.25068  0.50089  1.0000
  Na  Na17      1.0  0.66744  0.50022  0.00010  1.0000
  Na  Na18      1.0  0.66753  0.50025  0.50013  1.0000
  Na  Na19      1.0  0.83321  0.75022  0.00010  1.0000
  Na  Na20      1.0  0.83333  0.75018  0.50011  1.0000
  Na  Na21      1.0  0.66735  0.00020  0.00008  1.0000
  Na  Na22      1.0  0.66740  0.00026  0.50013  1.0000
  Na  Na23      1.0  0.83350  0.25028  0.00015  1.0000
  Na  Na24      1.0  0.83321  0.25022  0.50011  1.0000
  Na  Na25      1.0  0.00148  0.50032  0.25034  1.0000
  Na  Na26      1.0  0.00066  0.50017  0.75056  1.0000
  Na  Na27      1.0  0.16719  0.75015  0.25008  1.0000
  Na  Na28      1.0  0.16731  0.75018  0.75006  1.0000
  Na  Na29      1.0  0.00138  0.00028  0.25041  1.0000
  Na  Na30      1.0  0.00085  0.99999  0.75074  1.0000
  Na  Na31      1.0  0.16742  0.25017  0.25007  1.0000
  Na  Na32      1.0  0.16737  0.25015  0.75005  1.0000
  Na  Na33      1.0  0.33354  0.50024  0.25016  1.0000
  Na  Na34      1.0  0.33345  0.50023  0.75013  1.0000
  Na  Na35      1.0  0.50086  0.75008  0.25075  1.0000
  Na  Na36      1.0  0.50088  0.75025  0.75050  1.0000
  Na  Na37      1.0  0.33354  0.00033  0.25023  1.0000
  Na  Na38      1.0  0.33336  0.00024  0.75015  1.0000
  Na  Na39      1.0  0.50114  0.25018  0.25054  1.0000
  Na  Na40      1.0  0.50118  0.25014  0.75049  1.0000
  Na  Na41      1.0  0.66717  0.50016  0.25000  1.0000
  Na  Na42      1.0  0.66751  0.50008  0.75001  1.0000
  Na  Na43      1.0  0.83345  0.75027  0.25016  1.0000
  Na  Na44      1.0  0.83359  0.75026  0.75022  1.0000
  Na  Na45      1.0  0.66747  0.00012  0.25006  1.0000
  Na  Na46      1.0  0.66736  0.00008  0.74999  1.0000
  Na  Na47      1.0  0.83344  0.25037  0.25018  1.0000
  Na  Na48      1.0  0.83350  0.25032  0.75017  1.0000
  Li  Li1       1.0  0.16716  0.41708  0.12511  1.0000
  Li  Li2       1.0  0.16707  0.41708  0.62515  1.0000
  Li  Li3       1.0  0.33383  0.66724  0.12562  1.0000
  Li  Li4       1.0  0.33388  0.66711  0.62529  1.0000
  Li  Li5       1.0  0.16721  0.91711  0.12535  1.0000
  Li  Li6       1.0  0.16706  0.91700  0.62515  1.0000
  Li  Li7       1.0  0.33393  0.16723  0.12539  1.0000
  Li  Li8       1.0  0.33389  0.16705  0.62543  1.0000
  Li  Li9       1.0  0.50047  0.41716  0.12536  1.0000
  Li  Li10      1.0  0.50052  0.41712  0.62553  1.0000
  Li  Li11      1.0  0.66702  0.66705  0.12546  1.0000
  Li  Li12      1.0  0.66706  0.66711  0.62549  1.0000
  Li  Li13      1.0  0.50038  0.91725  0.12559  1.0000
  Li  Li14      1.0  0.50033  0.91721  0.62529  1.0000
  Li  Li15      1.0  0.66713  0.16706  0.12534  1.0000
  Li  Li16      1.0  0.66715  0.16695  0.62539  1.0000
  Li  Li17      1.0  0.83402  0.41718  0.12539  1.0000
  Li  Li18      1.0  0.83398  0.41701  0.62523  1.0000
  Li  Li19      1.0  0.00034  0.66734  0.12533  1.0000
  Li  Li20      1.0  0.00039  0.66713  0.62531  1.0000
  Li  Li21      1.0  0.83395  0.91706  0.12522  1.0000
  Li  Li22      1.0  0.83390  0.91697  0.62538  1.0000
  Li  Li23      1.0  0.00043  0.16714  0.12543  1.0000
  Li  Li24      1.0  0.00036  0.16720  0.62544  1.0000
  Li  Li25      1.0  0.16728  0.58371  0.37547  1.0000
  Li  Li26      1.0  0.16718  0.58383  0.87530  1.0000
  Li  Li27      1.0  0.33384  0.83383  0.37531  1.0000
  Li  Li28      1.0  0.33396  0.83384  0.87535  1.0000
  Li  Li29      1.0  0.16703  0.08392  0.37549  1.0000
  Li  Li30      1.0  0.16723  0.08388  0.87533  1.0000
  Li  Li31      1.0  0.33384  0.33383  0.37532  1.0000
  Li  Li32      1.0  0.33378  0.33387  0.87530  1.0000
  Li  Li33      1.0  0.50049  0.58378  0.37544  1.0000
  Li  Li34      1.0  0.50048  0.58388  0.87526  1.0000
  Li  Li35      1.0  0.66711  0.83393  0.37543  1.0000
  Li  Li36      1.0  0.66701  0.83376  0.87529  1.0000
  Li  Li37      1.0  0.50049  0.08378  0.37539  1.0000
  Li  Li38      1.0  0.50041  0.08376  0.87524  1.0000
  Li  Li39      1.0  0.66709  0.33389  0.37532  1.0000
  Li  Li40      1.0  0.66710  0.33387  0.87539  1.0000
  Li  Li41      1.0  0.83392  0.58379  0.37505  1.0000
  Li  Li42      1.0  0.83382  0.58379  0.87534  1.0000
  Li  Li43      1.0  0.00038  0.83389  0.37552  1.0000
  Li  Li44      1.0  0.00049  0.83370  0.87559  1.0000
  Li  Li45      1.0  0.83379  0.08381  0.37505  1.0000
  Li  Li46      1.0  0.83381  0.08374  0.87531  1.0000
  Li  Li47      1.0  0.00037  0.33379  0.37539  1.0000
  Li  Li48      1.0  0.00040  0.33384  0.87548  1.0000
  O   O1        1.0  0.16719  0.41713  0.37537  1.0000
  O   O2        1.0  0.16708  0.41719  0.87543  1.0000
  O   O3        1.0  0.33388  0.66716  0.37546  1.0000
  O   O4        1.0  0.33386  0.66719  0.87547  1.0000
  O   O5        1.0  0.16705  0.91724  0.37531  1.0000
  O   O6        1.0  0.16716  0.91721  0.87539  1.0000
  O   O7        1.0  0.33379  0.16717  0.37529  1.0000
  O   O8        1.0  0.33383  0.16721  0.87526  1.0000
  O   O9        1.0  0.50048  0.41720  0.37532  1.0000
  O   O10       1.0  0.50050  0.41709  0.87521  1.0000
  O   O11       1.0  0.66724  0.66722  0.37537  1.0000
  O   O12       1.0  0.66717  0.66721  0.87535  1.0000
  O   O13       1.0  0.50043  0.91714  0.37549  1.0000
  O   O14       1.0  0.50048  0.91717  0.87529  1.0000
  O   O15       1.0  0.66714  0.16723  0.37528  1.0000
  O   O16       1.0  0.66715  0.16719  0.87537  1.0000
  O   O17       1.0  0.83382  0.41724  0.37550  1.0000
  O   O18       1.0  0.83371  0.41715  0.87553  1.0000
  O   O19       1.0  0.00057  0.66724  0.37529  1.0000
  O   O20       1.0  0.00054  0.66710  0.87528  1.0000
  O   O21       1.0  0.83374  0.91723  0.37554  1.0000
  O   O22       1.0  0.83387  0.91715  0.87542  1.0000
  O   O23       1.0  0.00033  0.16721  0.37522  1.0000
  O   O24       1.0  0.00053  0.16717  0.87528  1.0000
  O   O25       1.0  0.16711  0.58381  0.12545  1.0000
  O   O26       1.0  0.16709  0.58380  0.62530  1.0000
  O   O27       1.0  0.33375  0.83376  0.12550  1.0000
  O   O28       1.0  0.33377  0.83377  0.62527  1.0000
  O   O29       1.0  0.16722  0.08384  0.12534  1.0000
  O   O30       1.0  0.16707  0.08374  0.62519  1.0000
  O   O31       1.0  0.33384  0.33382  0.12528  1.0000
  O   O32       1.0  0.33376  0.33375  0.62531  1.0000
  O   O33       1.0  0.50048  0.58372  0.12532  1.0000
  O   O34       1.0  0.50050  0.58369  0.62540  1.0000
  O   O35       1.0  0.66712  0.83374  0.12551  1.0000
  O   O36       1.0  0.66710  0.83376  0.62543  1.0000
  O   O37       1.0  0.50050  0.08379  0.12536  1.0000
  O   O38       1.0  0.50052  0.08378  0.62542  1.0000
  O   O39       1.0  0.66721  0.33383  0.12549  1.0000
  O   O40       1.0  0.66721  0.33367  0.62542  1.0000
  O   O41       1.0  0.83375  0.58385  0.12539  1.0000
  O   O42       1.0  0.83373  0.58366  0.62546  1.0000
  O   O43       1.0  0.00061  0.83388  0.12523  1.0000
  O   O44       1.0  0.00039  0.83373  0.62527  1.0000
  O   O45       1.0  0.83387  0.08375  0.12539  1.0000
  O   O46       1.0  0.83376  0.08369  0.62547  1.0000
  O   O47       1.0  0.00050  0.33380  0.12534  1.0000
  O   O48       1.0  0.00044  0.33368  0.62530  1.0000
