data_image0
_chemical_formula_structural       Y24Si24O88
_chemical_formula_sum              "Y24 Si24 O88"
_cell_length_a       11.2368
_cell_length_b       14.7196
_cell_length_c       10.3709
_cell_angle_alpha    97.236
_cell_angle_beta     90.0004
_cell_angle_gamma    89.9986

_space_group_name_H-M_alt    "P 1"
_space_group_IT_number       1

loop_
  _space_group_symop_operation_xyz
  'x, y, z'

loop_
  _atom_site_type_symbol
  _atom_site_label
  _atom_site_symmetry_multiplicity
  _atom_site_fract_x
  _atom_site_fract_y
  _atom_site_fract_z
  _atom_site_occupancy
  Y   Y1        1.0  0.27633  0.70849  0.82325  1.0000
  Y   Y2        1.0  0.27626  0.20853  0.82323  1.0000
  Y   Y3        1.0  0.77626  0.54224  0.67777  1.0000
  Y   Y4        1.0  0.77631  0.04229  0.67780  1.0000
  Y   Y5        1.0  0.72452  0.29233  0.17781  1.0000
  Y   Y6        1.0  0.72457  0.79226  0.17780  1.0000
  Y   Y7        1.0  0.22454  0.45846  0.32322  1.0000
  Y   Y8        1.0  0.22457  0.95852  0.32322  1.0000
  Y   Y9        1.0  0.96675  0.36839  0.48455  1.0000
  Y   Y10       1.0  0.96688  0.86841  0.48448  1.0000
  Y   Y11       1.0  0.46673  0.38239  0.01652  1.0000
  Y   Y12       1.0  0.46686  0.88237  0.01654  1.0000
  Y   Y13       1.0  0.03389  0.63237  0.51644  1.0000
  Y   Y14       1.0  0.03402  0.13239  0.51653  1.0000
  Y   Y15       1.0  0.53402  0.61837  0.98452  1.0000
  Y   Y16       1.0  0.53390  0.11842  0.98459  1.0000
  Y   Y17       1.0  0.10584  0.90128  0.99953  1.0000
  Y   Y18       1.0  0.10579  0.40131  0.99944  1.0000
  Y   Y19       1.0  0.60579  0.34947  0.50157  1.0000
  Y   Y20       1.0  0.60585  0.84948  0.50149  1.0000
  Y   Y21       1.0  0.89505  0.09947  0.00144  1.0000
  Y   Y22       1.0  0.89504  0.59951  0.00147  1.0000
  Y   Y23       1.0  0.39507  0.65129  0.49959  1.0000
  Y   Y24       1.0  0.39502  0.15127  0.49955  1.0000
  Si  Si1       1.0  0.25797  0.36732  0.61551  1.0000
  Si  Si2       1.0  0.25805  0.86734  0.61557  1.0000
  Si  Si3       1.0  0.75805  0.88345  0.88546  1.0000
  Si  Si4       1.0  0.75795  0.38348  0.88554  1.0000
  Si  Si5       1.0  0.74283  0.63345  0.38544  1.0000
  Si  Si6       1.0  0.74284  0.13344  0.38546  1.0000
  Si  Si7       1.0  0.24280  0.11733  0.11558  1.0000
  Si  Si8       1.0  0.24284  0.61731  0.11555  1.0000
  Si  Si9       1.0  0.46390  0.49810  0.71001  1.0000
  Si  Si10      1.0  0.46395  0.99809  0.71003  1.0000
  Si  Si11      1.0  0.96394  0.75269  0.79100  1.0000
  Si  Si12      1.0  0.96388  0.25266  0.79105  1.0000
  Si  Si13      1.0  0.53687  0.50268  0.29105  1.0000
  Si  Si14      1.0  0.53694  0.00269  0.29106  1.0000
  Si  Si15      1.0  0.03687  0.24810  0.20999  1.0000
  Si  Si16      1.0  0.03694  0.74810  0.20997  1.0000
  Si  Si17      1.0  0.41059  0.26303  0.24434  1.0000
  Si  Si18      1.0  0.41059  0.76303  0.24427  1.0000
  Si  Si19      1.0  0.91061  0.48773  0.25671  1.0000
  Si  Si20      1.0  0.91058  0.98775  0.25677  1.0000
  Si  Si21      1.0  0.59028  0.73775  0.75676  1.0000
  Si  Si22      1.0  0.59022  0.23772  0.75686  1.0000
  Si  Si23      1.0  0.09023  0.51307  0.74414  1.0000
  Si  Si24      1.0  0.09027  0.01304  0.74423  1.0000
  O   O1        1.0  0.18112  0.38195  0.48803  1.0000
  O   O2        1.0  0.18121  0.88200  0.48809  1.0000
  O   O3        1.0  0.68110  0.36883  0.01303  1.0000
  O   O4        1.0  0.68120  0.86881  0.01294  1.0000
  O   O5        1.0  0.81963  0.61875  0.51294  1.0000
  O   O6        1.0  0.81969  0.11881  0.51292  1.0000
  O   O7        1.0  0.31972  0.63197  0.98809  1.0000
  O   O8        1.0  0.31961  0.13204  0.98812  1.0000
  O   O9        1.0  0.27937  0.76110  0.63053  1.0000
  O   O10       1.0  0.27929  0.26107  0.63048  1.0000
  O   O11       1.0  0.77929  0.48972  0.87055  1.0000
  O   O12       1.0  0.77935  0.98969  0.87050  1.0000
  O   O13       1.0  0.72153  0.23969  0.37055  1.0000
  O   O14       1.0  0.72155  0.73971  0.37050  1.0000
  O   O15       1.0  0.22155  0.51106  0.13049  1.0000
  O   O16       1.0  0.22155  0.01107  0.13049  1.0000
  O   O17       1.0  0.48151  0.48175  0.86189  1.0000
  O   O18       1.0  0.48150  0.98177  0.86194  1.0000
  O   O19       1.0  0.98149  0.76902  0.63911  1.0000
  O   O20       1.0  0.98148  0.26901  0.63915  1.0000
  O   O21       1.0  0.51930  0.51902  0.13913  1.0000
  O   O22       1.0  0.51935  0.01902  0.13918  1.0000
  O   O23       1.0  0.01932  0.23180  0.36189  1.0000
  O   O24       1.0  0.01936  0.73176  0.36186  1.0000
  O   O25       1.0  0.39080  0.41379  0.62386  1.0000
  O   O26       1.0  0.39088  0.91379  0.62388  1.0000
  O   O27       1.0  0.89087  0.83700  0.87716  1.0000
  O   O28       1.0  0.89077  0.33699  0.87721  1.0000
  O   O29       1.0  0.60996  0.58703  0.37715  1.0000
  O   O30       1.0  0.61002  0.08700  0.37718  1.0000
  O   O31       1.0  0.10995  0.16374  0.12391  1.0000
  O   O32       1.0  0.11003  0.66378  0.12382  1.0000
  O   O33       1.0  0.18214  0.42454  0.73662  1.0000
  O   O34       1.0  0.18225  0.92457  0.73669  1.0000
  O   O35       1.0  0.68224  0.82622  0.76434  1.0000
  O   O36       1.0  0.68214  0.32624  0.76439  1.0000
  O   O37       1.0  0.81861  0.57622  0.26430  1.0000
  O   O38       1.0  0.81862  0.07623  0.26433  1.0000
  O   O39       1.0  0.31861  0.17454  0.23673  1.0000
  O   O40       1.0  0.31860  0.67454  0.23672  1.0000
  O   O41       1.0  0.08961  0.76229  0.87015  1.0000
  O   O42       1.0  0.08951  0.26229  0.87027  1.0000
  O   O43       1.0  0.58952  0.48845  0.63077  1.0000
  O   O44       1.0  0.58961  0.98847  0.63087  1.0000
  O   O45       1.0  0.91122  0.23845  0.13080  1.0000
  O   O46       1.0  0.91129  0.73848  0.13077  1.0000
  O   O47       1.0  0.41122  0.51235  0.37026  1.0000
  O   O48       1.0  0.41129  0.01230  0.37024  1.0000
  O   O49       1.0  0.48310  0.75648  0.86302  1.0000
  O   O50       1.0  0.48305  0.25642  0.86318  1.0000
  O   O51       1.0  0.98307  0.49438  0.63785  1.0000
  O   O52       1.0  0.98312  0.99433  0.63796  1.0000
  O   O53       1.0  0.51777  0.24430  0.13807  1.0000
  O   O54       1.0  0.51777  0.74430  0.13798  1.0000
  O   O55       1.0  0.01778  0.50647  0.36299  1.0000
  O   O56       1.0  0.01775  0.00647  0.36301  1.0000
  O   O57       1.0  0.10078  0.34572  0.19870  1.0000
  O   O58       1.0  0.10086  0.84573  0.19880  1.0000
  O   O59       1.0  0.60082  0.40504  0.30230  1.0000
  O   O60       1.0  0.60084  0.90505  0.30220  1.0000
  O   O61       1.0  0.90000  0.65507  0.80218  1.0000
  O   O62       1.0  0.89998  0.15503  0.80220  1.0000
  O   O63       1.0  0.40002  0.59575  0.69888  1.0000
  O   O64       1.0  0.40003  0.09572  0.69886  1.0000
  O   O65       1.0  0.35181  0.35667  0.20354  1.0000
  O   O66       1.0  0.35183  0.85670  0.20351  1.0000
  O   O67       1.0  0.85183  0.39409  0.29751  1.0000
  O   O68       1.0  0.85186  0.89409  0.29754  1.0000
  O   O69       1.0  0.64905  0.64408  0.79755  1.0000
  O   O70       1.0  0.64902  0.14407  0.79761  1.0000
  O   O71       1.0  0.14903  0.60672  0.70340  1.0000
  O   O72       1.0  0.14903  0.10669  0.70348  1.0000
  O   O73       1.0  0.44849  0.27231  0.39489  1.0000
  O   O74       1.0  0.44850  0.77234  0.39483  1.0000
  O   O75       1.0  0.94850  0.47847  0.10616  1.0000
  O   O76       1.0  0.94849  0.97843  0.10618  1.0000
  O   O77       1.0  0.55241  0.72842  0.60620  1.0000
  O   O78       1.0  0.55235  0.22839  0.60630  1.0000
  O   O79       1.0  0.05234  0.52238  0.89471  1.0000
  O   O80       1.0  0.05236  0.02234  0.89480  1.0000
  O   O81       1.0  0.28673  0.84386  0.95860  1.0000
  O   O82       1.0  0.28665  0.34399  0.95822  1.0000
  O   O83       1.0  0.78666  0.40676  0.54274  1.0000
  O   O84       1.0  0.78675  0.90688  0.54249  1.0000
  O   O85       1.0  0.71413  0.15697  0.04229  1.0000
  O   O86       1.0  0.71415  0.65688  0.04252  1.0000
  O   O87       1.0  0.21413  0.59383  0.45875  1.0000
  O   O88       1.0  0.21414  0.09392  0.45846  1.0000
