data_image0
_chemical_formula_structural       Ti16Bi32O80
_chemical_formula_sum              "Ti16 Bi32 O80"
_cell_length_a       11.1557
_cell_length_b       15.855
_cell_length_c       11.0316
_cell_angle_alpha    90
_cell_angle_beta     90
_cell_angle_gamma    90

_space_group_name_H-M_alt    "P 1"
_space_group_IT_number       1

loop_
  _space_group_symop_operation_xyz
  'x, y, z'

loop_
  _atom_site_type_symbol
  _atom_site_label
  _atom_site_symmetry_multiplicity
  _atom_site_fract_x
  _atom_site_fract_y
  _atom_site_fract_z
  _atom_site_occupancy
  Ti  Ti1       1.0  0.09628  0.00021  0.38489  1.0000
  Ti  Ti2       1.0  0.09620  0.00034  0.88492  1.0000
  Ti  Ti3       1.0  0.34623  0.50031  0.38490  1.0000
  Ti  Ti4       1.0  0.34616  0.50032  0.88491  1.0000
  Ti  Ti5       1.0  0.59614  0.00038  0.38483  1.0000
  Ti  Ti6       1.0  0.59613  0.00033  0.88504  1.0000
  Ti  Ti7       1.0  0.84612  0.50032  0.38508  1.0000
  Ti  Ti8       1.0  0.84620  0.50039  0.88498  1.0000
  Ti  Ti9       1.0  0.40466  0.00031  0.13489  1.0000
  Ti  Ti10      1.0  0.40471  0.00036  0.63494  1.0000
  Ti  Ti11      1.0  0.65466  0.50024  0.13498  1.0000
  Ti  Ti12      1.0  0.65462  0.50033  0.63505  1.0000
  Ti  Ti13      1.0  0.90461  0.00033  0.13493  1.0000
  Ti  Ti14      1.0  0.90459  0.00040  0.63500  1.0000
  Ti  Ti15      1.0  0.15482  0.50042  0.13506  1.0000
  Ti  Ti16      1.0  0.15468  0.50029  0.63488  1.0000
  Bi  Bi1       1.0  0.35638  0.17014  0.36700  1.0000
  Bi  Bi2       1.0  0.35647  0.17015  0.86696  1.0000
  Bi  Bi3       1.0  0.60626  0.67012  0.36716  1.0000
  Bi  Bi4       1.0  0.60630  0.67020  0.86684  1.0000
  Bi  Bi5       1.0  0.85649  0.17025  0.36709  1.0000
  Bi  Bi6       1.0  0.85622  0.17008  0.86678  1.0000
  Bi  Bi7       1.0  0.10627  0.67016  0.36712  1.0000
  Bi  Bi8       1.0  0.10638  0.67018  0.86701  1.0000
  Bi  Bi9       1.0  0.14453  0.17009  0.11691  1.0000
  Bi  Bi10      1.0  0.14460  0.17013  0.61699  1.0000
  Bi  Bi11      1.0  0.39460  0.67013  0.11689  1.0000
  Bi  Bi12      1.0  0.39441  0.67025  0.61712  1.0000
  Bi  Bi13      1.0  0.64479  0.17014  0.11706  1.0000
  Bi  Bi14      1.0  0.64443  0.17022  0.61698  1.0000
  Bi  Bi15      1.0  0.89466  0.67018  0.11715  1.0000
  Bi  Bi16      1.0  0.89449  0.67024  0.61703  1.0000
  Bi  Bi17      1.0  0.35635  0.83044  0.36699  1.0000
  Bi  Bi18      1.0  0.35628  0.83054  0.86705  1.0000
  Bi  Bi19      1.0  0.60638  0.33042  0.36688  1.0000
  Bi  Bi20      1.0  0.60627  0.33050  0.86701  1.0000
  Bi  Bi21      1.0  0.85633  0.83063  0.36704  1.0000
  Bi  Bi22      1.0  0.85615  0.83045  0.86716  1.0000
  Bi  Bi23      1.0  0.10648  0.33051  0.36694  1.0000
  Bi  Bi24      1.0  0.10633  0.33046  0.86704  1.0000
  Bi  Bi25      1.0  0.14456  0.83046  0.11704  1.0000
  Bi  Bi26      1.0  0.14454  0.83056  0.61703  1.0000
  Bi  Bi27      1.0  0.39459  0.33036  0.11708  1.0000
  Bi  Bi28      1.0  0.39453  0.33049  0.61690  1.0000
  Bi  Bi29      1.0  0.64446  0.83036  0.11721  1.0000
  Bi  Bi30      1.0  0.64453  0.83061  0.61691  1.0000
  Bi  Bi31      1.0  0.89463  0.33037  0.11702  1.0000
  Bi  Bi32      1.0  0.89465  0.33051  0.61700  1.0000
  O   O1        1.0  0.17586  0.09539  0.42139  1.0000
  O   O2        1.0  0.17572  0.09555  0.92138  1.0000
  O   O3        1.0  0.42558  0.59556  0.42157  1.0000
  O   O4        1.0  0.42567  0.59559  0.92119  1.0000
  O   O5        1.0  0.67568  0.09556  0.42130  1.0000
  O   O6        1.0  0.67560  0.09558  0.92149  1.0000
  O   O7        1.0  0.92550  0.59565  0.42129  1.0000
  O   O8        1.0  0.92569  0.59564  0.92148  1.0000
  O   O9        1.0  0.32511  0.09548  0.17132  1.0000
  O   O10       1.0  0.32514  0.09553  0.67155  1.0000
  O   O11       1.0  0.57498  0.59536  0.17164  1.0000
  O   O12       1.0  0.57529  0.59563  0.67160  1.0000
  O   O13       1.0  0.82538  0.09566  0.17135  1.0000
  O   O14       1.0  0.82511  0.09565  0.67143  1.0000
  O   O15       1.0  0.07547  0.59570  0.17167  1.0000
  O   O16       1.0  0.07541  0.59560  0.67139  1.0000
  O   O17       1.0  0.26009  0.24970  0.00611  1.0000
  O   O18       1.0  0.26007  0.24978  0.50592  1.0000
  O   O19       1.0  0.51003  0.74982  0.00600  1.0000
  O   O20       1.0  0.51008  0.74973  0.50610  1.0000
  O   O21       1.0  0.76032  0.24973  0.00614  1.0000
  O   O22       1.0  0.76001  0.24981  0.50606  1.0000
  O   O23       1.0  0.01019  0.74973  0.00618  1.0000
  O   O24       1.0  0.01010  0.74982  0.50618  1.0000
  O   O25       1.0  0.24092  0.24977  0.25592  1.0000
  O   O26       1.0  0.24101  0.24978  0.75601  1.0000
  O   O27       1.0  0.49091  0.74971  0.25603  1.0000
  O   O28       1.0  0.49073  0.74991  0.75606  1.0000
  O   O29       1.0  0.74105  0.24990  0.25604  1.0000
  O   O30       1.0  0.74071  0.24974  0.75606  1.0000
  O   O31       1.0  0.99087  0.74986  0.25616  1.0000
  O   O32       1.0  0.99069  0.74973  0.75613  1.0000
  O   O33       1.0  0.24083  0.75082  0.25606  1.0000
  O   O34       1.0  0.24069  0.75092  0.75608  1.0000
  O   O35       1.0  0.49088  0.25083  0.25600  1.0000
  O   O36       1.0  0.49093  0.25090  0.75594  1.0000
  O   O37       1.0  0.74081  0.75083  0.25633  1.0000
  O   O38       1.0  0.74070  0.75093  0.75607  1.0000
  O   O39       1.0  0.99089  0.25090  0.25602  1.0000
  O   O40       1.0  0.99096  0.25074  0.75600  1.0000
  O   O41       1.0  0.26009  0.75096  0.00603  1.0000
  O   O42       1.0  0.26012  0.75095  0.50619  1.0000
  O   O43       1.0  0.51023  0.25078  0.00612  1.0000
  O   O44       1.0  0.51001  0.25075  0.50597  1.0000
  O   O45       1.0  0.76013  0.75081  0.00623  1.0000
  O   O46       1.0  0.76023  0.75104  0.50618  1.0000
  O   O47       1.0  0.01029  0.25087  0.00605  1.0000
  O   O48       1.0  0.00993  0.25082  0.50591  1.0000
  O   O49       1.0  0.17568  0.90490  0.42119  1.0000
  O   O50       1.0  0.17565  0.90508  0.92130  1.0000
  O   O51       1.0  0.42568  0.40506  0.42139  1.0000
  O   O52       1.0  0.42553  0.40504  0.92137  1.0000
  O   O53       1.0  0.67554  0.90510  0.42143  1.0000
  O   O54       1.0  0.67553  0.90508  0.92161  1.0000
  O   O55       1.0  0.92584  0.40520  0.42166  1.0000
  O   O56       1.0  0.92561  0.40509  0.92121  1.0000
  O   O57       1.0  0.32540  0.90502  0.17156  1.0000
  O   O58       1.0  0.32516  0.90517  0.67135  1.0000
  O   O59       1.0  0.57536  0.40493  0.17148  1.0000
  O   O60       1.0  0.57511  0.40512  0.67166  1.0000
  O   O61       1.0  0.82496  0.90520  0.17160  1.0000
  O   O62       1.0  0.82507  0.90520  0.67154  1.0000
  O   O63       1.0  0.07538  0.40519  0.17160  1.0000
  O   O64       1.0  0.07517  0.40507  0.67139  1.0000
  O   O65       1.0  0.45663  0.00036  0.47522  1.0000
  O   O66       1.0  0.45650  0.00038  0.97517  1.0000
  O   O67       1.0  0.70655  0.50026  0.47532  1.0000
  O   O68       1.0  0.70661  0.50037  0.97523  1.0000
  O   O69       1.0  0.95679  0.00026  0.47533  1.0000
  O   O70       1.0  0.95664  0.00020  0.97521  1.0000
  O   O71       1.0  0.20656  0.50019  0.47506  1.0000
  O   O72       1.0  0.20660  0.50055  0.97524  1.0000
  O   O73       1.0  0.04414  0.00026  0.22524  1.0000
  O   O74       1.0  0.04418  0.00050  0.72521  1.0000
  O   O75       1.0  0.29456  0.50035  0.22506  1.0000
  O   O76       1.0  0.29427  0.50024  0.72514  1.0000
  O   O77       1.0  0.54432  0.00046  0.22506  1.0000
  O   O78       1.0  0.54424  0.00035  0.72530  1.0000
  O   O79       1.0  0.79419  0.50025  0.22531  1.0000
  O   O80       1.0  0.79426  0.50038  0.72520  1.0000
