data_image0
_chemical_formula_structural       Li32Ca16Si16O64
_chemical_formula_sum              "Li32 Ca16 Si16 O64"
_cell_length_a       10.0844
_cell_length_b       10.0846
_cell_length_c       12.8941
_cell_angle_alpha    90.0014
_cell_angle_beta     90.0041
_cell_angle_gamma    90.0023

_space_group_name_H-M_alt    "P 1"
_space_group_IT_number       1

loop_
  _space_group_symop_operation_xyz
  'x, y, z'

loop_
  _atom_site_type_symbol
  _atom_site_label
  _atom_site_symmetry_multiplicity
  _atom_site_fract_x
  _atom_site_fract_y
  _atom_site_fract_z
  _atom_site_occupancy
  Li  Li1       1.0  0.25041  0.00049  0.12542  1.0000
  Li  Li2       1.0  0.75048  0.00042  0.12532  1.0000
  Li  Li3       1.0  0.25041  0.50038  0.12539  1.0000
  Li  Li4       1.0  0.25054  0.00066  0.62537  1.0000
  Li  Li5       1.0  0.50054  0.25046  0.37527  1.0000
  Li  Li6       1.0  0.75051  0.50049  0.12533  1.0000
  Li  Li7       1.0  0.75042  0.00062  0.62527  1.0000
  Li  Li8       1.0  0.00033  0.25037  0.37534  1.0000
  Li  Li9       1.0  0.25057  0.50053  0.62531  1.0000
  Li  Li10      1.0  0.50052  0.75047  0.37535  1.0000
  Li  Li11      1.0  0.50033  0.25037  0.87537  1.0000
  Li  Li12      1.0  0.75046  0.50043  0.62532  1.0000
  Li  Li13      1.0  0.00048  0.75051  0.37539  1.0000
  Li  Li14      1.0  0.00048  0.25041  0.87533  1.0000
  Li  Li15      1.0  0.50053  0.75045  0.87525  1.0000
  Li  Li16      1.0  0.00047  0.75048  0.87536  1.0000
  Li  Li17      1.0  0.00042  0.25054  0.12524  1.0000
  Li  Li18      1.0  0.50062  0.25049  0.12528  1.0000
  Li  Li19      1.0  0.00049  0.75053  0.12546  1.0000
  Li  Li20      1.0  0.00055  0.25052  0.62537  1.0000
  Li  Li21      1.0  0.25055  0.50050  0.37537  1.0000
  Li  Li22      1.0  0.50051  0.75030  0.12534  1.0000
  Li  Li23      1.0  0.50049  0.25060  0.62521  1.0000
  Li  Li24      1.0  0.75065  0.50052  0.37526  1.0000
  Li  Li25      1.0  0.00050  0.75041  0.62534  1.0000
  Li  Li26      1.0  0.25030  0.00054  0.37534  1.0000
  Li  Li27      1.0  0.25050  0.50056  0.87526  1.0000
  Li  Li28      1.0  0.50047  0.75044  0.62529  1.0000
  Li  Li29      1.0  0.75054  0.00049  0.37533  1.0000
  Li  Li30      1.0  0.75048  0.50043  0.87539  1.0000
  Li  Li31      1.0  0.25044  0.00048  0.87539  1.0000
  Li  Li32      1.0  0.75040  0.00043  0.87532  1.0000
  Ca  Ca1       1.0  0.00045  0.00057  0.25036  1.0000
  Ca  Ca2       1.0  0.50043  0.00043  0.25041  1.0000
  Ca  Ca3       1.0  0.00052  0.50045  0.25045  1.0000
  Ca  Ca4       1.0  0.00045  0.00051  0.75032  1.0000
  Ca  Ca5       1.0  0.25043  0.25048  0.50032  1.0000
  Ca  Ca6       1.0  0.50049  0.50045  0.25043  1.0000
  Ca  Ca7       1.0  0.50049  0.00051  0.75035  1.0000
  Ca  Ca8       1.0  0.75046  0.25053  0.50030  1.0000
  Ca  Ca9       1.0  0.00056  0.50061  0.75034  1.0000
  Ca  Ca10      1.0  0.25059  0.75055  0.50047  1.0000
  Ca  Ca11      1.0  0.25054  0.25058  0.00036  1.0000
  Ca  Ca12      1.0  0.50049  0.50038  0.75038  1.0000
  Ca  Ca13      1.0  0.75055  0.75051  0.50039  1.0000
  Ca  Ca14      1.0  0.75054  0.25043  0.00025  1.0000
  Ca  Ca15      1.0  0.25044  0.75046  0.00056  1.0000
  Ca  Ca16      1.0  0.75060  0.75054  0.00038  1.0000
  Si  Si1       1.0  0.00041  0.00054  0.00033  1.0000
  Si  Si2       1.0  0.50043  0.00047  0.00037  1.0000
  Si  Si3       1.0  0.00050  0.50046  0.00036  1.0000
  Si  Si4       1.0  0.00048  0.00049  0.50038  1.0000
  Si  Si5       1.0  0.25048  0.25047  0.25031  1.0000
  Si  Si6       1.0  0.50055  0.50044  0.00037  1.0000
  Si  Si7       1.0  0.50047  0.00044  0.50034  1.0000
  Si  Si8       1.0  0.75046  0.25046  0.25033  1.0000
  Si  Si9       1.0  0.00053  0.50044  0.50035  1.0000
  Si  Si10      1.0  0.25044  0.75044  0.25036  1.0000
  Si  Si11      1.0  0.25044  0.25050  0.75036  1.0000
  Si  Si12      1.0  0.50054  0.50040  0.50030  1.0000
  Si  Si13      1.0  0.75048  0.75042  0.25036  1.0000
  Si  Si14      1.0  0.75052  0.25046  0.75035  1.0000
  Si  Si15      1.0  0.25045  0.75047  0.75038  1.0000
  Si  Si16      1.0  0.75050  0.75055  0.75038  1.0000
  O   O1        1.0  0.84576  0.15517  0.32212  1.0000
  O   O2        1.0  0.34575  0.15515  0.32210  1.0000
  O   O3        1.0  0.84579  0.65520  0.32218  1.0000
  O   O4        1.0  0.84571  0.15515  0.82218  1.0000
  O   O5        1.0  0.09587  0.40512  0.57207  1.0000
  O   O6        1.0  0.34577  0.65520  0.32214  1.0000
  O   O7        1.0  0.34569  0.15521  0.82218  1.0000
  O   O8        1.0  0.59577  0.40509  0.57209  1.0000
  O   O9        1.0  0.84579  0.65530  0.82220  1.0000
  O   O10       1.0  0.09582  0.90521  0.57211  1.0000
  O   O11       1.0  0.09581  0.40516  0.07211  1.0000
  O   O12       1.0  0.34574  0.65520  0.82216  1.0000
  O   O13       1.0  0.59579  0.90520  0.57214  1.0000
  O   O14       1.0  0.59585  0.40510  0.07208  1.0000
  O   O15       1.0  0.09566  0.90525  0.07214  1.0000
  O   O16       1.0  0.59567  0.90521  0.07222  1.0000
  O   O17       1.0  0.15516  0.84573  0.32213  1.0000
  O   O18       1.0  0.65517  0.84567  0.32214  1.0000
  O   O19       1.0  0.15520  0.34576  0.32210  1.0000
  O   O20       1.0  0.15507  0.84570  0.82212  1.0000
  O   O21       1.0  0.40521  0.09572  0.57214  1.0000
  O   O22       1.0  0.65528  0.34573  0.32223  1.0000
  O   O23       1.0  0.65517  0.84582  0.82212  1.0000
  O   O24       1.0  0.90521  0.09581  0.57215  1.0000
  O   O25       1.0  0.15516  0.34583  0.82210  1.0000
  O   O26       1.0  0.40530  0.59567  0.57213  1.0000
  O   O27       1.0  0.40520  0.09586  0.07210  1.0000
  O   O28       1.0  0.65524  0.34575  0.82212  1.0000
  O   O29       1.0  0.90527  0.59571  0.57217  1.0000
  O   O30       1.0  0.90518  0.09581  0.07216  1.0000
  O   O31       1.0  0.40524  0.59563  0.07222  1.0000
  O   O32       1.0  0.90527  0.59573  0.07221  1.0000
  O   O33       1.0  0.15513  0.15521  0.17856  1.0000
  O   O34       1.0  0.65513  0.15514  0.17862  1.0000
  O   O35       1.0  0.15518  0.65513  0.17854  1.0000
  O   O36       1.0  0.15519  0.15519  0.67855  1.0000
  O   O37       1.0  0.40521  0.40515  0.42851  1.0000
  O   O38       1.0  0.65526  0.65511  0.17854  1.0000
  O   O39       1.0  0.65517  0.15525  0.67852  1.0000
  O   O40       1.0  0.90520  0.40520  0.42856  1.0000
  O   O41       1.0  0.15526  0.65515  0.67851  1.0000
  O   O42       1.0  0.40520  0.90513  0.42855  1.0000
  O   O43       1.0  0.40520  0.40525  0.92855  1.0000
  O   O44       1.0  0.65524  0.65520  0.67860  1.0000
  O   O45       1.0  0.90516  0.90523  0.42860  1.0000
  O   O46       1.0  0.90523  0.40515  0.92855  1.0000
  O   O47       1.0  0.40511  0.90517  0.92860  1.0000
  O   O48       1.0  0.90506  0.90528  0.92857  1.0000
  O   O49       1.0  0.09569  0.09580  0.92853  1.0000
  O   O50       1.0  0.59574  0.09567  0.92853  1.0000
  O   O51       1.0  0.09575  0.59575  0.92858  1.0000
  O   O52       1.0  0.09572  0.09578  0.42857  1.0000
  O   O53       1.0  0.34578  0.34572  0.17852  1.0000
  O   O54       1.0  0.59582  0.59578  0.92861  1.0000
  O   O55       1.0  0.59573  0.09569  0.42852  1.0000
  O   O56       1.0  0.84574  0.34578  0.17858  1.0000
  O   O57       1.0  0.09582  0.59575  0.42861  1.0000
  O   O58       1.0  0.34567  0.84568  0.17850  1.0000
  O   O59       1.0  0.34575  0.34571  0.67854  1.0000
  O   O60       1.0  0.59582  0.59568  0.42851  1.0000
  O   O61       1.0  0.84577  0.84573  0.17859  1.0000
  O   O62       1.0  0.84588  0.34572  0.67861  1.0000
  O   O63       1.0  0.34572  0.84574  0.67855  1.0000
  O   O64       1.0  0.84578  0.84583  0.67857  1.0000
