data_image0
_chemical_formula_structural       Na96Mg16O64
_chemical_formula_sum              "Na96 Mg16 O64"
_cell_length_a       15.0421
_cell_length_b       13.0015
_cell_length_c       11.6166
_cell_angle_alpha    90.0216
_cell_angle_beta     90.0136
_cell_angle_gamma    89.9928

_space_group_name_H-M_alt    "P 1"
_space_group_IT_number       1

loop_
  _space_group_symop_operation_xyz
  'x, y, z'

loop_
  _atom_site_type_symbol
  _atom_site_label
  _atom_site_symmetry_multiplicity
  _atom_site_fract_x
  _atom_site_fract_y
  _atom_site_fract_z
  _atom_site_occupancy
  Na  Na1       1.0  0.25050  0.36052  0.19437  1.0000
  Na  Na2       1.0  0.25048  0.36052  0.69436  1.0000
  Na  Na3       1.0  0.50046  0.86049  0.19436  1.0000
  Na  Na4       1.0  0.50046  0.86052  0.69438  1.0000
  Na  Na5       1.0  0.75047  0.36051  0.19436  1.0000
  Na  Na6       1.0  0.75049  0.36054  0.69439  1.0000
  Na  Na7       1.0  0.00049  0.86051  0.19436  1.0000
  Na  Na8       1.0  0.00049  0.86052  0.69440  1.0000
  Na  Na9       1.0  0.15294  0.23234  0.35681  1.0000
  Na  Na10      1.0  0.15293  0.23235  0.85681  1.0000
  Na  Na11      1.0  0.40294  0.73236  0.35683  1.0000
  Na  Na12      1.0  0.40296  0.73235  0.85685  1.0000
  Na  Na13      1.0  0.65293  0.23235  0.35682  1.0000
  Na  Na14      1.0  0.65294  0.23237  0.85686  1.0000
  Na  Na15      1.0  0.90294  0.73236  0.35683  1.0000
  Na  Na16      1.0  0.90294  0.73238  0.85685  1.0000
  Na  Na17      1.0  0.10638  0.07126  0.19459  1.0000
  Na  Na18      1.0  0.10648  0.07126  0.69470  1.0000
  Na  Na19      1.0  0.35658  0.57129  0.19476  1.0000
  Na  Na20      1.0  0.35656  0.57130  0.69472  1.0000
  Na  Na21      1.0  0.60634  0.07122  0.19463  1.0000
  Na  Na22      1.0  0.60656  0.07130  0.69473  1.0000
  Na  Na23      1.0  0.85643  0.57129  0.19464  1.0000
  Na  Na24      1.0  0.85653  0.57128  0.69474  1.0000
  Na  Na25      1.0  0.34719  0.23222  0.35681  1.0000
  Na  Na26      1.0  0.34718  0.23224  0.85682  1.0000
  Na  Na27      1.0  0.59720  0.73219  0.35671  1.0000
  Na  Na28      1.0  0.59721  0.73216  0.85667  1.0000
  Na  Na29      1.0  0.84716  0.23225  0.35684  1.0000
  Na  Na30      1.0  0.84715  0.23227  0.85687  1.0000
  Na  Na31      1.0  0.09718  0.73224  0.35682  1.0000
  Na  Na32      1.0  0.09716  0.73226  0.85682  1.0000
  Na  Na33      1.0  0.25010  0.03750  0.35607  1.0000
  Na  Na34      1.0  0.25016  0.03750  0.85598  1.0000
  Na  Na35      1.0  0.50014  0.53747  0.35606  1.0000
  Na  Na36      1.0  0.50014  0.53747  0.85604  1.0000
  Na  Na37      1.0  0.75011  0.03749  0.35604  1.0000
  Na  Na38      1.0  0.75016  0.03751  0.85609  1.0000
  Na  Na39      1.0  0.00013  0.53753  0.35606  1.0000
  Na  Na40      1.0  0.00015  0.53750  0.85606  1.0000
  Na  Na41      1.0  0.10616  0.92969  0.44475  1.0000
  Na  Na42      1.0  0.10669  0.92950  0.94501  1.0000
  Na  Na43      1.0  0.35614  0.42968  0.44476  1.0000
  Na  Na44      1.0  0.35612  0.42966  0.94476  1.0000
  Na  Na45      1.0  0.60611  0.92972  0.44474  1.0000
  Na  Na46      1.0  0.60637  0.92961  0.94475  1.0000
  Na  Na47      1.0  0.85650  0.42958  0.44488  1.0000
  Na  Na48      1.0  0.85661  0.42959  0.94498  1.0000
  Na  Na49      1.0  0.39500  0.07053  0.19448  1.0000
  Na  Na50      1.0  0.39503  0.07052  0.69445  1.0000
  Na  Na51      1.0  0.64498  0.57054  0.19442  1.0000
  Na  Na52      1.0  0.64501  0.57054  0.69442  1.0000
  Na  Na53      1.0  0.89499  0.07054  0.19446  1.0000
  Na  Na54      1.0  0.89499  0.07054  0.69446  1.0000
  Na  Na55      1.0  0.14505  0.57051  0.19446  1.0000
  Na  Na56      1.0  0.14502  0.57054  0.69446  1.0000
  Na  Na57      1.0  0.25047  0.96319  0.10619  1.0000
  Na  Na58      1.0  0.25037  0.96311  0.60606  1.0000
  Na  Na59      1.0  0.50029  0.46301  0.10599  1.0000
  Na  Na60      1.0  0.50033  0.46308  0.60610  1.0000
  Na  Na61      1.0  0.75034  0.96313  0.10615  1.0000
  Na  Na62      1.0  0.75032  0.96306  0.60604  1.0000
  Na  Na63      1.0  0.00043  0.46317  0.10621  1.0000
  Na  Na64      1.0  0.00035  0.46310  0.60616  1.0000
  Na  Na65      1.0  0.15310  0.76810  0.10665  1.0000
  Na  Na66      1.0  0.15305  0.76824  0.60643  1.0000
  Na  Na67      1.0  0.40306  0.26811  0.10662  1.0000
  Na  Na68      1.0  0.40309  0.26818  0.60653  1.0000
  Na  Na69      1.0  0.65303  0.76830  0.10631  1.0000
  Na  Na70      1.0  0.65294  0.76836  0.60619  1.0000
  Na  Na71      1.0  0.90310  0.26814  0.10660  1.0000
  Na  Na72      1.0  0.90307  0.26812  0.60662  1.0000
  Na  Na73      1.0  0.39511  0.93010  0.44427  1.0000
  Na  Na74      1.0  0.39512  0.93008  0.94429  1.0000
  Na  Na75      1.0  0.64514  0.43011  0.44429  1.0000
  Na  Na76      1.0  0.64514  0.43008  0.94433  1.0000
  Na  Na77      1.0  0.89509  0.93007  0.44435  1.0000
  Na  Na78      1.0  0.89516  0.93014  0.94426  1.0000
  Na  Na79      1.0  0.14509  0.43007  0.44434  1.0000
  Na  Na80      1.0  0.14510  0.43010  0.94429  1.0000
  Na  Na81      1.0  0.34750  0.76860  0.10602  1.0000
  Na  Na82      1.0  0.34753  0.76863  0.60599  1.0000
  Na  Na83      1.0  0.59742  0.26850  0.10615  1.0000
  Na  Na84      1.0  0.59756  0.26865  0.60600  1.0000
  Na  Na85      1.0  0.84755  0.76868  0.10596  1.0000
  Na  Na86      1.0  0.84744  0.76855  0.60609  1.0000
  Na  Na87      1.0  0.09758  0.26868  0.10597  1.0000
  Na  Na88      1.0  0.09750  0.26860  0.60602  1.0000
  Na  Na89      1.0  0.25037  0.63998  0.44427  1.0000
  Na  Na90      1.0  0.25037  0.63998  0.94424  1.0000
  Na  Na91      1.0  0.50038  0.13999  0.44429  1.0000
  Na  Na92      1.0  0.50035  0.13997  0.94422  1.0000
  Na  Na93      1.0  0.75039  0.63996  0.44425  1.0000
  Na  Na94      1.0  0.75037  0.63994  0.94424  1.0000
  Na  Na95      1.0  0.00035  0.13998  0.44425  1.0000
  Na  Na96      1.0  0.00038  0.13994  0.94425  1.0000
  Mg  Mg1       1.0  0.25025  0.16723  0.05448  1.0000
  Mg  Mg2       1.0  0.25024  0.16723  0.55450  1.0000
  Mg  Mg3       1.0  0.50025  0.66721  0.05447  1.0000
  Mg  Mg4       1.0  0.50024  0.66722  0.55446  1.0000
  Mg  Mg5       1.0  0.75023  0.16725  0.05451  1.0000
  Mg  Mg6       1.0  0.75025  0.16723  0.55448  1.0000
  Mg  Mg7       1.0  0.00027  0.66726  0.05448  1.0000
  Mg  Mg8       1.0  0.00024  0.66723  0.55452  1.0000
  Mg  Mg9       1.0  0.25025  0.83359  0.30433  1.0000
  Mg  Mg10      1.0  0.25028  0.83356  0.80430  1.0000
  Mg  Mg11      1.0  0.50024  0.33360  0.30437  1.0000
  Mg  Mg12      1.0  0.50025  0.33356  0.80436  1.0000
  Mg  Mg13      1.0  0.75024  0.83359  0.30430  1.0000
  Mg  Mg14      1.0  0.75023  0.83359  0.80428  1.0000
  Mg  Mg15      1.0  0.00026  0.33359  0.30433  1.0000
  Mg  Mg16      1.0  0.00027  0.33358  0.80434  1.0000
  O   O1        1.0  0.25024  0.31033  0.49886  1.0000
  O   O2        1.0  0.25021  0.31034  0.99886  1.0000
  O   O3        1.0  0.50027  0.81035  0.49886  1.0000
  O   O4        1.0  0.50030  0.81034  0.99882  1.0000
  O   O5        1.0  0.75028  0.31035  0.49886  1.0000
  O   O6        1.0  0.75033  0.31037  0.99886  1.0000
  O   O7        1.0  0.00028  0.81034  0.49888  1.0000
  O   O8        1.0  0.00035  0.81038  0.99886  1.0000
  O   O9        1.0  0.25020  0.16755  0.22173  1.0000
  O   O10       1.0  0.25017  0.16757  0.72174  1.0000
  O   O11       1.0  0.50012  0.66756  0.22173  1.0000
  O   O12       1.0  0.50010  0.66753  0.72171  1.0000
  O   O13       1.0  0.75014  0.16758  0.22176  1.0000
  O   O14       1.0  0.75016  0.16757  0.72174  1.0000
  O   O15       1.0  0.00018  0.66757  0.22173  1.0000
  O   O16       1.0  0.00013  0.66755  0.72177  1.0000
  O   O17       1.0  0.14309  0.09571  0.49891  1.0000
  O   O18       1.0  0.14312  0.09573  0.99890  1.0000
  O   O19       1.0  0.39311  0.59570  0.49885  1.0000
  O   O20       1.0  0.39310  0.59568  0.99889  1.0000
  O   O21       1.0  0.64311  0.09568  0.49890  1.0000
  O   O22       1.0  0.64308  0.09570  0.99892  1.0000
  O   O23       1.0  0.89312  0.59571  0.49891  1.0000
  O   O24       1.0  0.89312  0.59577  0.99889  1.0000
  O   O25       1.0  0.35742  0.09572  0.49895  1.0000
  O   O26       1.0  0.35742  0.09570  0.99896  1.0000
  O   O27       1.0  0.60744  0.59577  0.49890  1.0000
  O   O28       1.0  0.60742  0.59573  0.99890  1.0000
  O   O29       1.0  0.85743  0.09574  0.49896  1.0000
  O   O30       1.0  0.85742  0.09576  0.99896  1.0000
  O   O31       1.0  0.10743  0.59574  0.49896  1.0000
  O   O32       1.0  0.10744  0.59572  0.99896  1.0000
  O   O33       1.0  0.14320  0.90546  0.24890  1.0000
  O   O34       1.0  0.14324  0.90546  0.74895  1.0000
  O   O35       1.0  0.39319  0.40543  0.24893  1.0000
  O   O36       1.0  0.39319  0.40545  0.74896  1.0000
  O   O37       1.0  0.64316  0.90545  0.24894  1.0000
  O   O38       1.0  0.64318  0.90545  0.74887  1.0000
  O   O39       1.0  0.89322  0.40547  0.24894  1.0000
  O   O40       1.0  0.89322  0.40546  0.74896  1.0000
  O   O41       1.0  0.25020  0.83356  0.47159  1.0000
  O   O42       1.0  0.25020  0.83356  0.97161  1.0000
  O   O43       1.0  0.50021  0.33355  0.47163  1.0000
  O   O44       1.0  0.50017  0.33339  0.97163  1.0000
  O   O45       1.0  0.75023  0.83353  0.47156  1.0000
  O   O46       1.0  0.75021  0.83362  0.97156  1.0000
  O   O47       1.0  0.00017  0.33354  0.47162  1.0000
  O   O48       1.0  0.00020  0.33362  0.97163  1.0000
  O   O49       1.0  0.35745  0.90519  0.24890  1.0000
  O   O50       1.0  0.35745  0.90520  0.74890  1.0000
  O   O51       1.0  0.60741  0.40518  0.24889  1.0000
  O   O52       1.0  0.60742  0.40521  0.74893  1.0000
  O   O53       1.0  0.85744  0.90522  0.24891  1.0000
  O   O54       1.0  0.85743  0.90519  0.74889  1.0000
  O   O55       1.0  0.10745  0.40519  0.24893  1.0000
  O   O56       1.0  0.10744  0.40520  0.74889  1.0000
  O   O57       1.0  0.25034  0.69050  0.24874  1.0000
  O   O58       1.0  0.25033  0.69050  0.74869  1.0000
  O   O59       1.0  0.50026  0.19049  0.24879  1.0000
  O   O60       1.0  0.50032  0.19049  0.74869  1.0000
  O   O61       1.0  0.75027  0.69053  0.24865  1.0000
  O   O62       1.0  0.75027  0.69052  0.74869  1.0000
  O   O63       1.0  0.00030  0.19052  0.24872  1.0000
  O   O64       1.0  0.00033  0.19050  0.74873  1.0000
