data_image0
_chemical_formula_structural       Na32Bi16O48
_chemical_formula_sum              "Na32 Bi16 O48"
_cell_length_a       10.1841
_cell_length_b       11.7822
_cell_length_c       11.1101
_cell_angle_alpha    80.3621
_cell_angle_beta     90.0052
_cell_angle_gamma    90.0038

_space_group_name_H-M_alt    "P 1"
_space_group_IT_number       1

loop_
  _space_group_symop_operation_xyz
  'x, y, z'

loop_
  _atom_site_type_symbol
  _atom_site_label
  _atom_site_symmetry_multiplicity
  _atom_site_fract_x
  _atom_site_fract_y
  _atom_site_fract_z
  _atom_site_occupancy
  Na  Na1       1.0  0.08392  0.38306  0.00203  1.0000
  Na  Na2       1.0  0.58383  0.63310  0.00200  1.0000
  Na  Na3       1.0  0.08403  0.88292  0.00172  1.0000
  Na  Na4       1.0  0.58366  0.13307  0.00210  1.0000
  Na  Na5       1.0  0.91698  0.38297  0.50234  1.0000
  Na  Na6       1.0  0.41690  0.63298  0.50218  1.0000
  Na  Na7       1.0  0.91694  0.88295  0.50221  1.0000
  Na  Na8       1.0  0.41704  0.13293  0.50235  1.0000
  Na  Na9       1.0  0.75043  0.12502  0.50038  1.0000
  Na  Na10      1.0  0.25044  0.37496  0.50036  1.0000
  Na  Na11      1.0  0.75041  0.62517  0.50017  1.0000
  Na  Na12      1.0  0.25036  0.87501  0.50030  1.0000
  Na  Na13      1.0  0.41694  0.24998  0.75043  1.0000
  Na  Na14      1.0  0.91697  0.49989  0.75034  1.0000
  Na  Na15      1.0  0.41679  0.75060  0.74984  1.0000
  Na  Na16      1.0  0.91695  0.99999  0.75036  1.0000
  Na  Na17      1.0  0.58394  0.25071  0.25015  1.0000
  Na  Na18      1.0  0.08399  0.50080  0.25008  1.0000
  Na  Na19      1.0  0.58418  0.75118  0.24974  1.0000
  Na  Na20      1.0  0.08420  0.00132  0.24960  1.0000
  Na  Na21      1.0  0.08560  0.11868  0.49926  1.0000
  Na  Na22      1.0  0.58558  0.36881  0.49924  1.0000
  Na  Na23      1.0  0.08551  0.61875  0.49927  1.0000
  Na  Na24      1.0  0.58560  0.86879  0.49928  1.0000
  Na  Na25      1.0  0.25027  0.12498  0.00037  1.0000
  Na  Na26      1.0  0.75020  0.37499  0.00032  1.0000
  Na  Na27      1.0  0.25035  0.62508  0.00022  1.0000
  Na  Na28      1.0  0.75043  0.87511  0.00021  1.0000
  Na  Na29      1.0  0.91608  0.11883  0.99941  1.0000
  Na  Na30      1.0  0.41637  0.36881  0.99939  1.0000
  Na  Na31      1.0  0.91659  0.61763  0.99917  1.0000
  Na  Na32      1.0  0.41667  0.86816  0.99935  1.0000
  Bi  Bi1       1.0  0.08263  0.25007  0.75065  1.0000
  Bi  Bi2       1.0  0.58259  0.50019  0.75049  1.0000
  Bi  Bi3       1.0  0.08259  0.75006  0.75057  1.0000
  Bi  Bi4       1.0  0.58267  0.00014  0.75064  1.0000
  Bi  Bi5       1.0  0.74979  0.25011  0.75037  1.0000
  Bi  Bi6       1.0  0.24984  0.50007  0.75032  1.0000
  Bi  Bi7       1.0  0.74984  0.75003  0.75042  1.0000
  Bi  Bi8       1.0  0.24986  0.00005  0.75040  1.0000
  Bi  Bi9       1.0  0.91823  0.25032  0.25072  1.0000
  Bi  Bi10      1.0  0.41826  0.50032  0.25072  1.0000
  Bi  Bi11      1.0  0.91830  0.75035  0.25047  1.0000
  Bi  Bi12      1.0  0.41823  0.00021  0.25069  1.0000
  Bi  Bi13      1.0  0.25113  0.25032  0.25028  1.0000
  Bi  Bi14      1.0  0.75105  0.50032  0.25025  1.0000
  Bi  Bi15      1.0  0.25104  0.75027  0.25025  1.0000
  Bi  Bi16      1.0  0.75108  0.00031  0.25029  1.0000
  O   O1        1.0  0.10100  0.43987  0.63754  1.0000
  O   O2        1.0  0.60105  0.69000  0.63754  1.0000
  O   O3        1.0  0.10105  0.93989  0.63760  1.0000
  O   O4        1.0  0.60103  0.18996  0.63755  1.0000
  O   O5        1.0  0.24491  0.33256  0.85990  1.0000
  O   O6        1.0  0.74475  0.58243  0.85985  1.0000
  O   O7        1.0  0.24493  0.83247  0.85983  1.0000
  O   O8        1.0  0.74476  0.08258  0.85994  1.0000
  O   O9        1.0  0.89983  0.43987  0.13753  1.0000
  O   O10       1.0  0.39986  0.68996  0.13756  1.0000
  O   O11       1.0  0.89980  0.94011  0.13749  1.0000
  O   O12       1.0  0.39985  0.18997  0.13755  1.0000
  O   O13       1.0  0.90125  0.30205  0.86481  1.0000
  O   O14       1.0  0.40127  0.55216  0.86466  1.0000
  O   O15       1.0  0.90129  0.80186  0.86488  1.0000
  O   O16       1.0  0.40130  0.05194  0.86487  1.0000
  O   O17       1.0  0.75613  0.33274  0.35987  1.0000
  O   O18       1.0  0.25605  0.58270  0.35985  1.0000
  O   O19       1.0  0.75615  0.83268  0.35981  1.0000
  O   O20       1.0  0.25614  0.08271  0.35983  1.0000
  O   O21       1.0  0.09969  0.30215  0.36479  1.0000
  O   O22       1.0  0.59965  0.55225  0.36470  1.0000
  O   O23       1.0  0.09955  0.80221  0.36465  1.0000
  O   O24       1.0  0.59961  0.05208  0.36483  1.0000
  O   O25       1.0  0.90137  0.19827  0.63607  1.0000
  O   O26       1.0  0.40133  0.44831  0.63591  1.0000
  O   O27       1.0  0.90137  0.69829  0.63599  1.0000
  O   O28       1.0  0.40139  0.94834  0.63597  1.0000
  O   O29       1.0  0.24508  0.16782  0.64124  1.0000
  O   O30       1.0  0.74507  0.41785  0.64115  1.0000
  O   O31       1.0  0.24494  0.66783  0.64108  1.0000
  O   O32       1.0  0.74505  0.91781  0.64127  1.0000
  O   O33       1.0  0.09950  0.19850  0.13591  1.0000
  O   O34       1.0  0.59942  0.44841  0.13596  1.0000
  O   O35       1.0  0.09954  0.69831  0.13589  1.0000
  O   O36       1.0  0.59947  0.94839  0.13595  1.0000
  O   O37       1.0  0.10100  0.06035  0.86308  1.0000
  O   O38       1.0  0.60099  0.31049  0.86305  1.0000
  O   O39       1.0  0.10096  0.56036  0.86307  1.0000
  O   O40       1.0  0.60100  0.81047  0.86308  1.0000
  O   O41       1.0  0.75580  0.16806  0.14113  1.0000
  O   O42       1.0  0.25596  0.41803  0.14108  1.0000
  O   O43       1.0  0.75596  0.66792  0.14091  1.0000
  O   O44       1.0  0.25598  0.91791  0.14098  1.0000
  O   O45       1.0  0.89985  0.06048  0.36307  1.0000
  O   O46       1.0  0.39986  0.31045  0.36313  1.0000
  O   O47       1.0  0.89985  0.56056  0.36298  1.0000
  O   O48       1.0  0.39981  0.81048  0.36308  1.0000
