data_image0
_chemical_formula_structural       Hf24Zr24O96
_chemical_formula_sum              "Hf24 Zr24 O96"
_cell_length_a       14.5203
_cell_length_b       11.6327
_cell_length_c       10.8434
_cell_angle_alpha    97.1686
_cell_angle_beta     90
_cell_angle_gamma    90

_space_group_name_H-M_alt    "P 1"
_space_group_IT_number       1

loop_
  _space_group_symop_operation_xyz
  'x, y, z'

loop_
  _atom_site_type_symbol
  _atom_site_label
  _atom_site_symmetry_multiplicity
  _atom_site_fract_x
  _atom_site_fract_y
  _atom_site_fract_z
  _atom_site_occupancy
  Hf  Hf1       1.0  0.00026  0.00047  0.00051  1.0000
  Hf  Hf2       1.0  0.00046  0.25054  0.50049  1.0000
  Hf  Hf3       1.0  0.00035  0.50049  0.00048  1.0000
  Hf  Hf4       1.0  0.00035  0.75055  0.50052  1.0000
  Hf  Hf5       1.0  0.33363  0.00054  0.00050  1.0000
  Hf  Hf6       1.0  0.33367  0.25046  0.50051  1.0000
  Hf  Hf7       1.0  0.33369  0.50053  0.00043  1.0000
  Hf  Hf8       1.0  0.33361  0.75045  0.50039  1.0000
  Hf  Hf9       1.0  0.66708  0.00046  0.00045  1.0000
  Hf  Hf10      1.0  0.66700  0.25049  0.50043  1.0000
  Hf  Hf11      1.0  0.66706  0.50046  0.00036  1.0000
  Hf  Hf12      1.0  0.66692  0.75042  0.50037  1.0000
  Hf  Hf13      1.0  0.16690  0.12565  0.25055  1.0000
  Hf  Hf14      1.0  0.16708  0.37559  0.75045  1.0000
  Hf  Hf15      1.0  0.16702  0.62546  0.25042  1.0000
  Hf  Hf16      1.0  0.16695  0.87568  0.75060  1.0000
  Hf  Hf17      1.0  0.50045  0.12541  0.25045  1.0000
  Hf  Hf18      1.0  0.50042  0.37550  0.75039  1.0000
  Hf  Hf19      1.0  0.50029  0.62542  0.25038  1.0000
  Hf  Hf20      1.0  0.50036  0.87546  0.75050  1.0000
  Hf  Hf21      1.0  0.83370  0.12553  0.25041  1.0000
  Hf  Hf22      1.0  0.83375  0.37554  0.75031  1.0000
  Hf  Hf23      1.0  0.83366  0.62557  0.25041  1.0000
  Hf  Hf24      1.0  0.83368  0.87548  0.75040  1.0000
  Zr  Zr1       1.0  0.16698  0.25057  0.00048  1.0000
  Zr  Zr2       1.0  0.16699  0.50054  0.50039  1.0000
  Zr  Zr3       1.0  0.16702  0.75049  0.00045  1.0000
  Zr  Zr4       1.0  0.16719  0.00037  0.50044  1.0000
  Zr  Zr5       1.0  0.50039  0.25049  0.00047  1.0000
  Zr  Zr6       1.0  0.50022  0.50046  0.50036  1.0000
  Zr  Zr7       1.0  0.50036  0.75053  0.00051  1.0000
  Zr  Zr8       1.0  0.50031  0.00049  0.50057  1.0000
  Zr  Zr9       1.0  0.83373  0.25048  0.00037  1.0000
  Zr  Zr10      1.0  0.83366  0.50059  0.50039  1.0000
  Zr  Zr11      1.0  0.83372  0.75043  0.00035  1.0000
  Zr  Zr12      1.0  0.83377  0.00053  0.50037  1.0000
  Zr  Zr13      1.0  0.00027  0.37552  0.25045  1.0000
  Zr  Zr14      1.0  0.00037  0.62554  0.75045  1.0000
  Zr  Zr15      1.0  0.00043  0.87547  0.25052  1.0000
  Zr  Zr16      1.0  0.00040  0.12554  0.75049  1.0000
  Zr  Zr17      1.0  0.33362  0.37528  0.25039  1.0000
  Zr  Zr18      1.0  0.33367  0.62561  0.75047  1.0000
  Zr  Zr19      1.0  0.33365  0.87555  0.25041  1.0000
  Zr  Zr20      1.0  0.33381  0.12564  0.75057  1.0000
  Zr  Zr21      1.0  0.66705  0.37558  0.25043  1.0000
  Zr  Zr22      1.0  0.66698  0.62548  0.75036  1.0000
  Zr  Zr23      1.0  0.66708  0.87550  0.25053  1.0000
  Zr  Zr24      1.0  0.66706  0.12549  0.75046  1.0000
  O   O1        1.0  0.23272  0.11450  0.07857  1.0000
  O   O2        1.0  0.23267  0.36428  0.57838  1.0000
  O   O3        1.0  0.23263  0.61424  0.07827  1.0000
  O   O4        1.0  0.23256  0.86415  0.57844  1.0000
  O   O5        1.0  0.56601  0.11422  0.07831  1.0000
  O   O6        1.0  0.56581  0.36418  0.57818  1.0000
  O   O7        1.0  0.56596  0.61429  0.07833  1.0000
  O   O8        1.0  0.56602  0.86432  0.57838  1.0000
  O   O9        1.0  0.89925  0.11420  0.07828  1.0000
  O   O10       1.0  0.89945  0.36445  0.57831  1.0000
  O   O11       1.0  0.89928  0.61426  0.07837  1.0000
  O   O12       1.0  0.89927  0.86424  0.57832  1.0000
  O   O13       1.0  0.26792  0.23933  0.32856  1.0000
  O   O14       1.0  0.26794  0.48950  0.82839  1.0000
  O   O15       1.0  0.26797  0.73938  0.32836  1.0000
  O   O16       1.0  0.26795  0.98948  0.82844  1.0000
  O   O17       1.0  0.60144  0.23929  0.32824  1.0000
  O   O18       1.0  0.60143  0.48915  0.82825  1.0000
  O   O19       1.0  0.60131  0.73933  0.32832  1.0000
  O   O20       1.0  0.60142  0.98920  0.82836  1.0000
  O   O21       1.0  0.93482  0.23916  0.32829  1.0000
  O   O22       1.0  0.93459  0.48945  0.82853  1.0000
  O   O23       1.0  0.93471  0.73928  0.32835  1.0000
  O   O24       1.0  0.93477  0.98929  0.82829  1.0000
  O   O25       1.0  0.10316  0.26082  0.17576  1.0000
  O   O26       1.0  0.10298  0.51049  0.67559  1.0000
  O   O27       1.0  0.10318  0.76060  0.17573  1.0000
  O   O28       1.0  0.10314  0.01073  0.67561  1.0000
  O   O29       1.0  0.43645  0.26049  0.17573  1.0000
  O   O30       1.0  0.43637  0.51058  0.67567  1.0000
  O   O31       1.0  0.43618  0.76035  0.17551  1.0000
  O   O32       1.0  0.43646  0.01057  0.67581  1.0000
  O   O33       1.0  0.76986  0.26063  0.17561  1.0000
  O   O34       1.0  0.76974  0.51057  0.67558  1.0000
  O   O35       1.0  0.76969  0.76045  0.17551  1.0000
  O   O36       1.0  0.76979  0.01059  0.67560  1.0000
  O   O37       1.0  0.06428  0.38562  0.42555  1.0000
  O   O38       1.0  0.06425  0.63567  0.92574  1.0000
  O   O39       1.0  0.06434  0.88553  0.42570  1.0000
  O   O40       1.0  0.06417  0.13568  0.92583  1.0000
  O   O41       1.0  0.39751  0.38555  0.42566  1.0000
  O   O42       1.0  0.39768  0.63546  0.92558  1.0000
  O   O43       1.0  0.39758  0.88557  0.42567  1.0000
  O   O44       1.0  0.39761  0.13556  0.92583  1.0000
  O   O45       1.0  0.73095  0.38556  0.42562  1.0000
  O   O46       1.0  0.73084  0.63561  0.92557  1.0000
  O   O47       1.0  0.73110  0.88534  0.42561  1.0000
  O   O48       1.0  0.73100  0.13546  0.92564  1.0000
  O   O49       1.0  0.26971  0.36553  0.07526  1.0000
  O   O50       1.0  0.26963  0.61550  0.57531  1.0000
  O   O51       1.0  0.26961  0.86560  0.07530  1.0000
  O   O52       1.0  0.26989  0.11532  0.57535  1.0000
  O   O53       1.0  0.60297  0.36557  0.07531  1.0000
  O   O54       1.0  0.60309  0.61526  0.57513  1.0000
  O   O55       1.0  0.60303  0.86549  0.07534  1.0000
  O   O56       1.0  0.60304  0.11550  0.57530  1.0000
  O   O57       1.0  0.93649  0.36533  0.07509  1.0000
  O   O58       1.0  0.93645  0.61547  0.57525  1.0000
  O   O59       1.0  0.93637  0.86538  0.07538  1.0000
  O   O60       1.0  0.93638  0.11555  0.57526  1.0000
  O   O61       1.0  0.23105  0.49056  0.32534  1.0000
  O   O62       1.0  0.23090  0.74059  0.82525  1.0000
  O   O63       1.0  0.23097  0.99056  0.32518  1.0000
  O   O64       1.0  0.23099  0.24053  0.82525  1.0000
  O   O65       1.0  0.56434  0.49054  0.32528  1.0000
  O   O66       1.0  0.56417  0.74031  0.82523  1.0000
  O   O67       1.0  0.56439  0.99047  0.32544  1.0000
  O   O68       1.0  0.56429  0.24036  0.82525  1.0000
  O   O69       1.0  0.89740  0.49031  0.32508  1.0000
  O   O70       1.0  0.89764  0.74052  0.82522  1.0000
  O   O71       1.0  0.89770  0.99050  0.32529  1.0000
  O   O72       1.0  0.89764  0.24049  0.82518  1.0000
  O   O73       1.0  0.06590  0.51183  0.17265  1.0000
  O   O74       1.0  0.06587  0.76185  0.67266  1.0000
  O   O75       1.0  0.06590  0.01182  0.17259  1.0000
  O   O76       1.0  0.06595  0.26185  0.67260  1.0000
  O   O77       1.0  0.39925  0.51168  0.17261  1.0000
  O   O78       1.0  0.39933  0.76172  0.67241  1.0000
  O   O79       1.0  0.39938  0.01157  0.17246  1.0000
  O   O80       1.0  0.39936  0.26171  0.67250  1.0000
  O   O81       1.0  0.73270  0.51167  0.17236  1.0000
  O   O82       1.0  0.73249  0.76179  0.67257  1.0000
  O   O83       1.0  0.73269  0.01170  0.17260  1.0000
  O   O84       1.0  0.73258  0.26185  0.67252  1.0000
  O   O85       1.0  0.10138  0.63673  0.42253  1.0000
  O   O86       1.0  0.10132  0.88674  0.92264  1.0000
  O   O87       1.0  0.10146  0.13670  0.42275  1.0000
  O   O88       1.0  0.10144  0.38684  0.92257  1.0000
  O   O89       1.0  0.43468  0.63672  0.42252  1.0000
  O   O90       1.0  0.43462  0.88663  0.92251  1.0000
  O   O91       1.0  0.43465  0.13660  0.42239  1.0000
  O   O92       1.0  0.43461  0.38656  0.92236  1.0000
  O   O93       1.0  0.76802  0.63672  0.42250  1.0000
  O   O94       1.0  0.76814  0.88669  0.92251  1.0000
  O   O95       1.0  0.76801  0.13673  0.42251  1.0000
  O   O96       1.0  0.76797  0.38657  0.92240  1.0000
