data_image0
_chemical_formula_structural       Al32Bi32O96
_chemical_formula_sum              "Al32 Bi32 O96"
_cell_length_a       10.046
_cell_length_b       14.2976
_cell_length_c       14.9655
_cell_angle_alpha    89.3832
_cell_angle_beta     89.999
_cell_angle_gamma    89.9993

_space_group_name_H-M_alt    "P 1"
_space_group_IT_number       1

loop_
  _space_group_symop_operation_xyz
  'x, y, z'

loop_
  _atom_site_type_symbol
  _atom_site_label
  _atom_site_symmetry_multiplicity
  _atom_site_fract_x
  _atom_site_fract_y
  _atom_site_fract_z
  _atom_site_occupancy
  Al  Al1       1.0  0.37029  0.58135  0.25523  1.0000
  Al  Al2       1.0  0.37030  0.83137  0.75525  1.0000
  Al  Al3       1.0  0.37029  0.08136  0.25522  1.0000
  Al  Al4       1.0  0.37028  0.33134  0.75527  1.0000
  Al  Al5       1.0  0.87029  0.58138  0.25526  1.0000
  Al  Al6       1.0  0.87031  0.83136  0.75524  1.0000
  Al  Al7       1.0  0.87031  0.08135  0.25526  1.0000
  Al  Al8       1.0  0.87025  0.33136  0.75526  1.0000
  Al  Al9       1.0  0.38067  0.45634  0.00523  1.0000
  Al  Al10      1.0  0.38067  0.70638  0.50525  1.0000
  Al  Al11      1.0  0.38065  0.95636  0.00528  1.0000
  Al  Al12      1.0  0.38069  0.20634  0.50527  1.0000
  Al  Al13      1.0  0.88067  0.45638  0.00523  1.0000
  Al  Al14      1.0  0.88069  0.70637  0.50523  1.0000
  Al  Al15      1.0  0.88065  0.95635  0.00525  1.0000
  Al  Al16      1.0  0.88069  0.20635  0.50524  1.0000
  Al  Al17      1.0  0.12028  0.29426  0.49535  1.0000
  Al  Al18      1.0  0.12028  0.54428  0.99534  1.0000
  Al  Al19      1.0  0.12031  0.79429  0.49536  1.0000
  Al  Al20      1.0  0.12029  0.04427  0.99539  1.0000
  Al  Al21      1.0  0.62025  0.29426  0.49536  1.0000
  Al  Al22      1.0  0.62022  0.54430  0.99538  1.0000
  Al  Al23      1.0  0.62027  0.79430  0.49536  1.0000
  Al  Al24      1.0  0.62026  0.04425  0.99540  1.0000
  Al  Al25      1.0  0.13069  0.16928  0.24536  1.0000
  Al  Al26      1.0  0.13066  0.41929  0.74540  1.0000
  Al  Al27      1.0  0.13067  0.66930  0.24538  1.0000
  Al  Al28      1.0  0.13069  0.91927  0.74537  1.0000
  Al  Al29      1.0  0.63072  0.16927  0.24537  1.0000
  Al  Al30      1.0  0.63070  0.41928  0.74537  1.0000
  Al  Al31      1.0  0.63069  0.66929  0.24540  1.0000
  Al  Al32      1.0  0.63069  0.91927  0.74537  1.0000
  Bi  Bi1       1.0  0.11698  0.57254  0.44145  1.0000
  Bi  Bi2       1.0  0.11700  0.82253  0.94146  1.0000
  Bi  Bi3       1.0  0.11701  0.07255  0.44145  1.0000
  Bi  Bi4       1.0  0.11698  0.32253  0.94145  1.0000
  Bi  Bi5       1.0  0.61697  0.57253  0.44147  1.0000
  Bi  Bi6       1.0  0.61697  0.82251  0.94145  1.0000
  Bi  Bi7       1.0  0.61696  0.07252  0.44145  1.0000
  Bi  Bi8       1.0  0.61702  0.32252  0.94144  1.0000
  Bi  Bi9       1.0  0.13394  0.44758  0.19142  1.0000
  Bi  Bi10      1.0  0.13404  0.69754  0.69144  1.0000
  Bi  Bi11      1.0  0.13396  0.94754  0.19145  1.0000
  Bi  Bi12      1.0  0.13397  0.19753  0.69146  1.0000
  Bi  Bi13      1.0  0.63398  0.44752  0.19146  1.0000
  Bi  Bi14      1.0  0.63396  0.69755  0.69144  1.0000
  Bi  Bi15      1.0  0.63398  0.94754  0.19146  1.0000
  Bi  Bi16      1.0  0.63399  0.19754  0.69147  1.0000
  Bi  Bi17      1.0  0.36696  0.30311  0.30917  1.0000
  Bi  Bi18      1.0  0.36697  0.55310  0.80917  1.0000
  Bi  Bi19      1.0  0.36702  0.80311  0.30919  1.0000
  Bi  Bi20      1.0  0.36701  0.05308  0.80918  1.0000
  Bi  Bi21      1.0  0.86699  0.30309  0.30916  1.0000
  Bi  Bi22      1.0  0.86695  0.55308  0.80918  1.0000
  Bi  Bi23      1.0  0.86703  0.80310  0.30919  1.0000
  Bi  Bi24      1.0  0.86702  0.05309  0.80919  1.0000
  Bi  Bi25      1.0  0.38399  0.17809  0.05918  1.0000
  Bi  Bi26      1.0  0.38398  0.42809  0.55917  1.0000
  Bi  Bi27      1.0  0.38395  0.67809  0.05920  1.0000
  Bi  Bi28      1.0  0.38395  0.92813  0.55918  1.0000
  Bi  Bi29      1.0  0.88396  0.17808  0.05918  1.0000
  Bi  Bi30      1.0  0.88397  0.42811  0.55917  1.0000
  Bi  Bi31      1.0  0.88396  0.67809  0.05918  1.0000
  Bi  Bi32      1.0  0.88398  0.92810  0.55917  1.0000
  O   O1        1.0  0.27430  0.65431  0.32991  1.0000
  O   O2        1.0  0.27429  0.90428  0.82988  1.0000
  O   O3        1.0  0.27432  0.15430  0.32989  1.0000
  O   O4        1.0  0.27432  0.40429  0.82989  1.0000
  O   O5        1.0  0.77429  0.65428  0.32991  1.0000
  O   O6        1.0  0.77429  0.90429  0.82989  1.0000
  O   O7        1.0  0.77432  0.15427  0.32986  1.0000
  O   O8        1.0  0.77428  0.40430  0.82991  1.0000
  O   O9        1.0  0.03865  0.56699  0.30326  1.0000
  O   O10       1.0  0.03862  0.81699  0.80327  1.0000
  O   O11       1.0  0.03864  0.06697  0.30326  1.0000
  O   O12       1.0  0.03859  0.31699  0.80327  1.0000
  O   O13       1.0  0.53862  0.56696  0.30323  1.0000
  O   O14       1.0  0.53863  0.81698  0.80324  1.0000
  O   O15       1.0  0.53867  0.06696  0.30325  1.0000
  O   O16       1.0  0.53861  0.31698  0.80329  1.0000
  O   O17       1.0  0.47667  0.52928  0.07991  1.0000
  O   O18       1.0  0.47667  0.77931  0.57989  1.0000
  O   O19       1.0  0.47666  0.02931  0.07991  1.0000
  O   O20       1.0  0.47669  0.27929  0.57988  1.0000
  O   O21       1.0  0.97671  0.52931  0.07986  1.0000
  O   O22       1.0  0.97666  0.77929  0.57989  1.0000
  O   O23       1.0  0.97669  0.02927  0.07988  1.0000
  O   O24       1.0  0.97669  0.27930  0.57990  1.0000
  O   O25       1.0  0.31916  0.46014  0.26626  1.0000
  O   O26       1.0  0.31921  0.71015  0.76629  1.0000
  O   O27       1.0  0.31923  0.96015  0.26629  1.0000
  O   O28       1.0  0.31916  0.21015  0.76629  1.0000
  O   O29       1.0  0.81919  0.46017  0.26631  1.0000
  O   O30       1.0  0.81916  0.71016  0.76630  1.0000
  O   O31       1.0  0.81920  0.96016  0.26628  1.0000
  O   O32       1.0  0.81921  0.21015  0.76632  1.0000
  O   O33       1.0  0.21232  0.44199  0.05324  1.0000
  O   O34       1.0  0.21236  0.69199  0.55326  1.0000
  O   O35       1.0  0.21232  0.94199  0.05324  1.0000
  O   O36       1.0  0.21237  0.19197  0.55325  1.0000
  O   O37       1.0  0.71233  0.44200  0.05327  1.0000
  O   O38       1.0  0.71234  0.69199  0.55325  1.0000
  O   O39       1.0  0.71229  0.94197  0.05325  1.0000
  O   O40       1.0  0.71236  0.19197  0.55327  1.0000
  O   O41       1.0  0.06915  0.41550  0.48428  1.0000
  O   O42       1.0  0.06918  0.66551  0.98429  1.0000
  O   O43       1.0  0.06922  0.91553  0.48430  1.0000
  O   O44       1.0  0.06920  0.16549  0.98433  1.0000
  O   O45       1.0  0.56920  0.41548  0.48430  1.0000
  O   O46       1.0  0.56918  0.66549  0.98432  1.0000
  O   O47       1.0  0.56914  0.91550  0.48431  1.0000
  O   O48       1.0  0.56915  0.16549  0.98436  1.0000
  O   O49       1.0  0.43178  0.33513  0.01627  1.0000
  O   O50       1.0  0.43180  0.58514  0.51632  1.0000
  O   O51       1.0  0.43176  0.83514  0.01632  1.0000
  O   O52       1.0  0.43184  0.08513  0.51630  1.0000
  O   O53       1.0  0.93177  0.33517  0.01629  1.0000
  O   O54       1.0  0.93178  0.58515  0.51630  1.0000
  O   O55       1.0  0.93175  0.83515  0.01629  1.0000
  O   O56       1.0  0.93181  0.08514  0.51630  1.0000
  O   O57       1.0  0.28863  0.30866  0.44736  1.0000
  O   O58       1.0  0.28861  0.55865  0.94736  1.0000
  O   O59       1.0  0.28864  0.80868  0.44740  1.0000
  O   O60       1.0  0.28860  0.05867  0.94738  1.0000
  O   O61       1.0  0.78861  0.30862  0.44736  1.0000
  O   O62       1.0  0.78862  0.55867  0.94733  1.0000
  O   O63       1.0  0.78862  0.80866  0.44735  1.0000
  O   O64       1.0  0.78859  0.05866  0.94737  1.0000
  O   O65       1.0  0.18174  0.29049  0.23431  1.0000
  O   O66       1.0  0.18179  0.54049  0.73433  1.0000
  O   O67       1.0  0.18175  0.79050  0.23434  1.0000
  O   O68       1.0  0.18181  0.04049  0.73432  1.0000
  O   O69       1.0  0.68177  0.29052  0.23433  1.0000
  O   O70       1.0  0.68174  0.54052  0.73434  1.0000
  O   O71       1.0  0.68178  0.79053  0.23434  1.0000
  O   O72       1.0  0.68181  0.04051  0.73431  1.0000
  O   O73       1.0  0.02432  0.22134  0.42072  1.0000
  O   O74       1.0  0.02428  0.47136  0.92069  1.0000
  O   O75       1.0  0.02429  0.72133  0.42070  1.0000
  O   O76       1.0  0.02427  0.97137  0.92077  1.0000
  O   O77       1.0  0.52431  0.22132  0.42074  1.0000
  O   O78       1.0  0.52429  0.47131  0.92075  1.0000
  O   O79       1.0  0.52429  0.72137  0.42074  1.0000
  O   O80       1.0  0.52430  0.97134  0.92075  1.0000
  O   O81       1.0  0.46236  0.18367  0.19737  1.0000
  O   O82       1.0  0.46234  0.43364  0.69740  1.0000
  O   O83       1.0  0.46235  0.68365  0.19741  1.0000
  O   O84       1.0  0.46233  0.93368  0.69736  1.0000
  O   O85       1.0  0.96235  0.18365  0.19734  1.0000
  O   O86       1.0  0.96233  0.43364  0.69735  1.0000
  O   O87       1.0  0.96236  0.68366  0.19737  1.0000
  O   O88       1.0  0.96235  0.93363  0.69737  1.0000
  O   O89       1.0  0.22668  0.09635  0.17070  1.0000
  O   O90       1.0  0.22667  0.34634  0.67075  1.0000
  O   O91       1.0  0.22668  0.59636  0.17073  1.0000
  O   O92       1.0  0.22670  0.84637  0.67074  1.0000
  O   O93       1.0  0.72669  0.09637  0.17074  1.0000
  O   O94       1.0  0.72669  0.34633  0.67074  1.0000
  O   O95       1.0  0.72669  0.59635  0.17073  1.0000
  O   O96       1.0  0.72671  0.84633  0.67073  1.0000
