data_image0
_chemical_formula_structural       K32Sr32O48
_chemical_formula_sum              "K32 Sr32 O48"
_cell_length_a       14.1977
_cell_length_b       14.1703
_cell_length_c       12.4346
_cell_angle_alpha    90.7115
_cell_angle_beta     89.9992
_cell_angle_gamma    90.0012

_space_group_name_H-M_alt    "P 1"
_space_group_IT_number       1

loop_
  _space_group_symop_operation_xyz
  'x, y, z'

loop_
  _atom_site_type_symbol
  _atom_site_label
  _atom_site_symmetry_multiplicity
  _atom_site_fract_x
  _atom_site_fract_y
  _atom_site_fract_z
  _atom_site_occupancy
  K   K1        1.0  0.17337  0.07715  0.05655  1.0000
  K   K2        1.0  0.17330  0.32714  0.55656  1.0000
  K   K3        1.0  0.17339  0.57720  0.05653  1.0000
  K   K4        1.0  0.17336  0.82716  0.55661  1.0000
  K   K5        1.0  0.67338  0.07715  0.05667  1.0000
  K   K6        1.0  0.67331  0.32723  0.55664  1.0000
  K   K7        1.0  0.67333  0.57718  0.05659  1.0000
  K   K8        1.0  0.67336  0.82721  0.55664  1.0000
  K   K9        1.0  0.07735  0.32711  0.05658  1.0000
  K   K10       1.0  0.07734  0.57716  0.55663  1.0000
  K   K11       1.0  0.07738  0.82709  0.05657  1.0000
  K   K12       1.0  0.07742  0.07723  0.55660  1.0000
  K   K13       1.0  0.57731  0.32718  0.05660  1.0000
  K   K14       1.0  0.57730  0.57718  0.55660  1.0000
  K   K15       1.0  0.57740  0.82724  0.05662  1.0000
  K   K16       1.0  0.57747  0.07721  0.55666  1.0000
  K   K17       1.0  0.42333  0.42361  0.44425  1.0000
  K   K18       1.0  0.42342  0.67361  0.94426  1.0000
  K   K19       1.0  0.42340  0.92359  0.44430  1.0000
  K   K20       1.0  0.42332  0.17364  0.94423  1.0000
  K   K21       1.0  0.92326  0.42359  0.44422  1.0000
  K   K22       1.0  0.92333  0.67361  0.94423  1.0000
  K   K23       1.0  0.92334  0.92358  0.44421  1.0000
  K   K24       1.0  0.92329  0.17357  0.94426  1.0000
  K   K25       1.0  0.32739  0.67365  0.44420  1.0000
  K   K26       1.0  0.32744  0.92355  0.94423  1.0000
  K   K27       1.0  0.32739  0.17363  0.44420  1.0000
  K   K28       1.0  0.32735  0.42361  0.94425  1.0000
  K   K29       1.0  0.82740  0.67361  0.44414  1.0000
  K   K30       1.0  0.82743  0.92360  0.94419  1.0000
  K   K31       1.0  0.82735  0.17362  0.44430  1.0000
  K   K32       1.0  0.82741  0.42363  0.94425  1.0000
  Sr  Sr1       1.0  0.31104  0.29502  0.17115  1.0000
  Sr  Sr2       1.0  0.31106  0.54499  0.67120  1.0000
  Sr  Sr3       1.0  0.31111  0.79500  0.17125  1.0000
  Sr  Sr4       1.0  0.31108  0.04503  0.67125  1.0000
  Sr  Sr5       1.0  0.81104  0.29502  0.17120  1.0000
  Sr  Sr6       1.0  0.81103  0.54503  0.67118  1.0000
  Sr  Sr7       1.0  0.81103  0.79502  0.17120  1.0000
  Sr  Sr8       1.0  0.81107  0.04498  0.67120  1.0000
  Sr  Sr9       1.0  0.06105  0.20581  0.32963  1.0000
  Sr  Sr10      1.0  0.06104  0.45577  0.82964  1.0000
  Sr  Sr11      1.0  0.06107  0.70575  0.32968  1.0000
  Sr  Sr12      1.0  0.06110  0.95576  0.82959  1.0000
  Sr  Sr13      1.0  0.56112  0.20578  0.32965  1.0000
  Sr  Sr14      1.0  0.56105  0.45574  0.82960  1.0000
  Sr  Sr15      1.0  0.56110  0.70582  0.32964  1.0000
  Sr  Sr16      1.0  0.56110  0.95582  0.82968  1.0000
  Sr  Sr17      1.0  0.43968  0.54504  0.17126  1.0000
  Sr  Sr18      1.0  0.43964  0.79504  0.67128  1.0000
  Sr  Sr19      1.0  0.43970  0.04504  0.17121  1.0000
  Sr  Sr20      1.0  0.43965  0.29498  0.67122  1.0000
  Sr  Sr21      1.0  0.93968  0.54503  0.17125  1.0000
  Sr  Sr22      1.0  0.93967  0.79499  0.67122  1.0000
  Sr  Sr23      1.0  0.93973  0.04499  0.17119  1.0000
  Sr  Sr24      1.0  0.93965  0.29505  0.67118  1.0000
  Sr  Sr25      1.0  0.18964  0.45575  0.32967  1.0000
  Sr  Sr26      1.0  0.18962  0.70579  0.82964  1.0000
  Sr  Sr27      1.0  0.18972  0.95586  0.32967  1.0000
  Sr  Sr28      1.0  0.18966  0.20572  0.82956  1.0000
  Sr  Sr29      1.0  0.68966  0.45578  0.32960  1.0000
  Sr  Sr30      1.0  0.68964  0.70575  0.82967  1.0000
  Sr  Sr31      1.0  0.68972  0.95582  0.32963  1.0000
  Sr  Sr32      1.0  0.68968  0.20584  0.82960  1.0000
  O   O1        1.0  0.25034  0.25042  0.00039  1.0000
  O   O2        1.0  0.25035  0.50040  0.50039  1.0000
  O   O3        1.0  0.25040  0.75037  0.00049  1.0000
  O   O4        1.0  0.25039  0.00035  0.50045  1.0000
  O   O5        1.0  0.75028  0.25042  0.00040  1.0000
  O   O6        1.0  0.75036  0.50042  0.50038  1.0000
  O   O7        1.0  0.75034  0.75041  0.00036  1.0000
  O   O8        1.0  0.75041  0.00037  0.50042  1.0000
  O   O9        1.0  0.00037  0.00039  0.00042  1.0000
  O   O10       1.0  0.00030  0.25041  0.50038  1.0000
  O   O11       1.0  0.00037  0.50042  0.00039  1.0000
  O   O12       1.0  0.00039  0.75039  0.50043  1.0000
  O   O13       1.0  0.50036  0.00040  0.00043  1.0000
  O   O14       1.0  0.50038  0.25046  0.50039  1.0000
  O   O15       1.0  0.50039  0.50038  0.00049  1.0000
  O   O16       1.0  0.50034  0.75045  0.50043  1.0000
  O   O17       1.0  0.46132  0.21707  0.17164  1.0000
  O   O18       1.0  0.46135  0.46700  0.67163  1.0000
  O   O19       1.0  0.46142  0.71702  0.17156  1.0000
  O   O20       1.0  0.46141  0.96704  0.67165  1.0000
  O   O21       1.0  0.96130  0.21699  0.17159  1.0000
  O   O22       1.0  0.96135  0.46703  0.67158  1.0000
  O   O23       1.0  0.96132  0.71695  0.17157  1.0000
  O   O24       1.0  0.96135  0.96701  0.67161  1.0000
  O   O25       1.0  0.21135  0.28380  0.32927  1.0000
  O   O26       1.0  0.21129  0.53382  0.82912  1.0000
  O   O27       1.0  0.21137  0.78383  0.32925  1.0000
  O   O28       1.0  0.21140  0.03378  0.82928  1.0000
  O   O29       1.0  0.71141  0.28377  0.32923  1.0000
  O   O30       1.0  0.71132  0.53377  0.82926  1.0000
  O   O31       1.0  0.71138  0.78382  0.32928  1.0000
  O   O32       1.0  0.71143  0.03376  0.82927  1.0000
  O   O33       1.0  0.28938  0.46702  0.17154  1.0000
  O   O34       1.0  0.28932  0.71705  0.67157  1.0000
  O   O35       1.0  0.28940  0.96703  0.17164  1.0000
  O   O36       1.0  0.28933  0.21702  0.67161  1.0000
  O   O37       1.0  0.78936  0.46702  0.17162  1.0000
  O   O38       1.0  0.78942  0.71699  0.67163  1.0000
  O   O39       1.0  0.78943  0.96701  0.17160  1.0000
  O   O40       1.0  0.78932  0.21705  0.67156  1.0000
  O   O41       1.0  0.03936  0.53380  0.32924  1.0000
  O   O42       1.0  0.03936  0.78378  0.82924  1.0000
  O   O43       1.0  0.03938  0.03382  0.32927  1.0000
  O   O44       1.0  0.03931  0.28374  0.82923  1.0000
  O   O45       1.0  0.53935  0.53379  0.32927  1.0000
  O   O46       1.0  0.53933  0.78381  0.82922  1.0000
  O   O47       1.0  0.53943  0.03382  0.32921  1.0000
  O   O48       1.0  0.53938  0.28375  0.82922  1.0000
