data_image0
_chemical_formula_structural       Ba32Mg16O48
_chemical_formula_sum              "Ba32 Mg16 O48"
_cell_length_a       11.49
_cell_length_b       11.8227
_cell_length_c       12.6913
_cell_angle_alpha    87.0594
_cell_angle_beta     90.0015
_cell_angle_gamma    89.9999

_space_group_name_H-M_alt    "P 1"
_space_group_IT_number       1

loop_
  _space_group_symop_operation_xyz
  'x, y, z'

loop_
  _atom_site_type_symbol
  _atom_site_label
  _atom_site_symmetry_multiplicity
  _atom_site_fract_x
  _atom_site_fract_y
  _atom_site_fract_z
  _atom_site_occupancy
  Ba  Ba1       1.0  0.10666  0.37896  0.42517  1.0000
  Ba  Ba2       1.0  0.60670  0.62898  0.42516  1.0000
  Ba  Ba3       1.0  0.10672  0.87899  0.42517  1.0000
  Ba  Ba4       1.0  0.60671  0.12894  0.42517  1.0000
  Ba  Ba5       1.0  0.20550  0.38298  0.84980  1.0000
  Ba  Ba6       1.0  0.70551  0.63298  0.84979  1.0000
  Ba  Ba7       1.0  0.20554  0.88292  0.84979  1.0000
  Ba  Ba8       1.0  0.70549  0.13291  0.84978  1.0000
  Ba  Ba9       1.0  0.79523  0.38294  0.34978  1.0000
  Ba  Ba10      1.0  0.29524  0.63288  0.34978  1.0000
  Ba  Ba11      1.0  0.79529  0.88299  0.34978  1.0000
  Ba  Ba12      1.0  0.29531  0.13295  0.34979  1.0000
  Ba  Ba13      1.0  0.10674  0.12186  0.07566  1.0000
  Ba  Ba14      1.0  0.60672  0.37185  0.07563  1.0000
  Ba  Ba15      1.0  0.10670  0.62189  0.07563  1.0000
  Ba  Ba16      1.0  0.60674  0.87182  0.07566  1.0000
  Ba  Ba17      1.0  0.89405  0.37901  0.92514  1.0000
  Ba  Ba18      1.0  0.39408  0.62893  0.92517  1.0000
  Ba  Ba19      1.0  0.89410  0.87904  0.92518  1.0000
  Ba  Ba20      1.0  0.39407  0.12898  0.92515  1.0000
  Ba  Ba21      1.0  0.20550  0.11792  0.65102  1.0000
  Ba  Ba22      1.0  0.70548  0.36788  0.65101  1.0000
  Ba  Ba23      1.0  0.20548  0.61787  0.65103  1.0000
  Ba  Ba24      1.0  0.70549  0.86788  0.65103  1.0000
  Ba  Ba25      1.0  0.79529  0.11792  0.15101  1.0000
  Ba  Ba26      1.0  0.29527  0.36787  0.15100  1.0000
  Ba  Ba27      1.0  0.79528  0.61792  0.15103  1.0000
  Ba  Ba28      1.0  0.29531  0.86789  0.15104  1.0000
  Ba  Ba29      1.0  0.89407  0.12185  0.57565  1.0000
  Ba  Ba30      1.0  0.39405  0.37184  0.57564  1.0000
  Ba  Ba31      1.0  0.89403  0.62187  0.57565  1.0000
  Ba  Ba32      1.0  0.39404  0.87181  0.57565  1.0000
  Mg  Mg1       1.0  0.00131  0.36784  0.66653  1.0000
  Mg  Mg2       1.0  0.50133  0.61774  0.66656  1.0000
  Mg  Mg3       1.0  0.00134  0.86783  0.66654  1.0000
  Mg  Mg4       1.0  0.50132  0.11771  0.66656  1.0000
  Mg  Mg5       1.0  0.99941  0.36782  0.16652  1.0000
  Mg  Mg6       1.0  0.49945  0.61772  0.16655  1.0000
  Mg  Mg7       1.0  0.99947  0.86778  0.16656  1.0000
  Mg  Mg8       1.0  0.49947  0.11772  0.16654  1.0000
  Mg  Mg9       1.0  0.00134  0.13311  0.83428  1.0000
  Mg  Mg10      1.0  0.50135  0.38303  0.83424  1.0000
  Mg  Mg11      1.0  0.00129  0.63312  0.83426  1.0000
  Mg  Mg12      1.0  0.50133  0.88303  0.83430  1.0000
  Mg  Mg13      1.0  0.99944  0.13308  0.33428  1.0000
  Mg  Mg14      1.0  0.49944  0.38302  0.33426  1.0000
  Mg  Mg15      1.0  0.99943  0.63309  0.33429  1.0000
  Mg  Mg16      1.0  0.49945  0.88302  0.33429  1.0000
  O   O1        1.0  0.09707  0.38810  0.03829  1.0000
  O   O2        1.0  0.59708  0.63798  0.03829  1.0000
  O   O3        1.0  0.09711  0.88805  0.03831  1.0000
  O   O4        1.0  0.59708  0.13797  0.03828  1.0000
  O   O5        1.0  0.16797  0.34023  0.63333  1.0000
  O   O6        1.0  0.66797  0.59020  0.63334  1.0000
  O   O7        1.0  0.16797  0.84017  0.63333  1.0000
  O   O8        1.0  0.66800  0.09016  0.63337  1.0000
  O   O9        1.0  0.08570  0.25045  0.25038  1.0000
  O   O10       1.0  0.58573  0.50041  0.25039  1.0000
  O   O11       1.0  0.08577  0.75042  0.25042  1.0000
  O   O12       1.0  0.58575  0.00038  0.25041  1.0000
  O   O13       1.0  0.49832  0.25038  0.25040  1.0000
  O   O14       1.0  0.99820  0.50045  0.25041  1.0000
  O   O15       1.0  0.49824  0.75038  0.25040  1.0000
  O   O16       1.0  0.99828  0.00043  0.25046  1.0000
  O   O17       1.0  0.16801  0.16072  0.86752  1.0000
  O   O18       1.0  0.66800  0.41067  0.86743  1.0000
  O   O19       1.0  0.16798  0.66066  0.86746  1.0000
  O   O20       1.0  0.66800  0.91062  0.86749  1.0000
  O   O21       1.0  0.09711  0.11286  0.46253  1.0000
  O   O22       1.0  0.59706  0.36279  0.46254  1.0000
  O   O23       1.0  0.09706  0.61278  0.46254  1.0000
  O   O24       1.0  0.59707  0.86276  0.46254  1.0000
  O   O25       1.0  0.90366  0.38810  0.53829  1.0000
  O   O26       1.0  0.40369  0.63798  0.53828  1.0000
  O   O27       1.0  0.90369  0.88810  0.53829  1.0000
  O   O28       1.0  0.40372  0.13794  0.53829  1.0000
  O   O29       1.0  0.83276  0.34023  0.13331  1.0000
  O   O30       1.0  0.33276  0.59012  0.13333  1.0000
  O   O31       1.0  0.83282  0.84024  0.13332  1.0000
  O   O32       1.0  0.33280  0.09018  0.13334  1.0000
  O   O33       1.0  0.91506  0.25044  0.75041  1.0000
  O   O34       1.0  0.41502  0.50038  0.75038  1.0000
  O   O35       1.0  0.91499  0.75047  0.75042  1.0000
  O   O36       1.0  0.41502  0.00037  0.75042  1.0000
  O   O37       1.0  0.50249  0.25036  0.75042  1.0000
  O   O38       1.0  0.00248  0.50050  0.75037  1.0000
  O   O39       1.0  0.50247  0.75037  0.75046  1.0000
  O   O40       1.0  0.00258  0.00047  0.75041  1.0000
  O   O41       1.0  0.83281  0.16068  0.36749  1.0000
  O   O42       1.0  0.33276  0.41058  0.36747  1.0000
  O   O43       1.0  0.83278  0.66074  0.36747  1.0000
  O   O44       1.0  0.33279  0.91065  0.36747  1.0000
  O   O45       1.0  0.90370  0.11283  0.96252  1.0000
  O   O46       1.0  0.40371  0.36280  0.96252  1.0000
  O   O47       1.0  0.90370  0.61286  0.96253  1.0000
  O   O48       1.0  0.40371  0.86276  0.96258  1.0000
