data_image0
_chemical_formula_structural       Li32Y32O64
_chemical_formula_sum              "Li32 Y32 O64"
_cell_length_a       10.776
_cell_length_b       12.2146
_cell_length_c       12.5953
_cell_angle_alpha    90
_cell_angle_beta     89.0614
_cell_angle_gamma    90

_space_group_name_H-M_alt    "P 1"
_space_group_IT_number       1

loop_
  _space_group_symop_operation_xyz
  'x, y, z'

loop_
  _atom_site_type_symbol
  _atom_site_label
  _atom_site_symmetry_multiplicity
  _atom_site_fract_x
  _atom_site_fract_y
  _atom_site_fract_z
  _atom_site_occupancy
  Li  Li1       1.0  0.14818  0.32978  0.96260  1.0000
  Li  Li2       1.0  0.14834  0.32947  0.46224  1.0000
  Li  Li3       1.0  0.14803  0.82967  0.96243  1.0000
  Li  Li4       1.0  0.14811  0.82954  0.46224  1.0000
  Li  Li5       1.0  0.64825  0.32934  0.21236  1.0000
  Li  Li6       1.0  0.64810  0.32954  0.71259  1.0000
  Li  Li7       1.0  0.64816  0.82933  0.21216  1.0000
  Li  Li8       1.0  0.64806  0.82934  0.71223  1.0000
  Li  Li9       1.0  0.35269  0.07960  0.03846  1.0000
  Li  Li10      1.0  0.35257  0.07956  0.53882  1.0000
  Li  Li11      1.0  0.35267  0.57947  0.03870  1.0000
  Li  Li12      1.0  0.35268  0.57972  0.53852  1.0000
  Li  Li13      1.0  0.85262  0.07941  0.28867  1.0000
  Li  Li14      1.0  0.85267  0.07937  0.78863  1.0000
  Li  Li15      1.0  0.85261  0.57979  0.28855  1.0000
  Li  Li16      1.0  0.85282  0.57955  0.78821  1.0000
  Li  Li17      1.0  0.35289  0.17135  0.28829  1.0000
  Li  Li18      1.0  0.35260  0.17122  0.78851  1.0000
  Li  Li19      1.0  0.35252  0.67132  0.28831  1.0000
  Li  Li20      1.0  0.35275  0.67137  0.78865  1.0000
  Li  Li21      1.0  0.85260  0.17103  0.53838  1.0000
  Li  Li22      1.0  0.85261  0.17107  0.03862  1.0000
  Li  Li23      1.0  0.85244  0.67114  0.53871  1.0000
  Li  Li24      1.0  0.85288  0.67108  0.03816  1.0000
  Li  Li25      1.0  0.14807  0.42127  0.21236  1.0000
  Li  Li26      1.0  0.14811  0.42140  0.71208  1.0000
  Li  Li27      1.0  0.14814  0.92134  0.21237  1.0000
  Li  Li28      1.0  0.14813  0.92143  0.71236  1.0000
  Li  Li29      1.0  0.64820  0.42136  0.46208  1.0000
  Li  Li30      1.0  0.64840  0.42111  0.96216  1.0000
  Li  Li31      1.0  0.64833  0.92114  0.46238  1.0000
  Li  Li32      1.0  0.64822  0.92126  0.96206  1.0000
  Y   Y1        1.0  0.11625  0.06627  0.43035  1.0000
  Y   Y2        1.0  0.11622  0.06625  0.93038  1.0000
  Y   Y3        1.0  0.11616  0.56623  0.43037  1.0000
  Y   Y4        1.0  0.11620  0.56627  0.93036  1.0000
  Y   Y5        1.0  0.61621  0.06616  0.68027  1.0000
  Y   Y6        1.0  0.61620  0.06608  0.18035  1.0000
  Y   Y7        1.0  0.61609  0.56615  0.68041  1.0000
  Y   Y8        1.0  0.61631  0.56615  0.18045  1.0000
  Y   Y9        1.0  0.11630  0.18457  0.18034  1.0000
  Y   Y10       1.0  0.11622  0.18457  0.68034  1.0000
  Y   Y11       1.0  0.11623  0.68462  0.18036  1.0000
  Y   Y12       1.0  0.11615  0.68469  0.68043  1.0000
  Y   Y13       1.0  0.61620  0.18452  0.43031  1.0000
  Y   Y14       1.0  0.61612  0.18448  0.93026  1.0000
  Y   Y15       1.0  0.61609  0.68463  0.43039  1.0000
  Y   Y16       1.0  0.61617  0.68448  0.93047  1.0000
  Y   Y17       1.0  0.38455  0.43458  0.82046  1.0000
  Y   Y18       1.0  0.38467  0.43470  0.32036  1.0000
  Y   Y19       1.0  0.38462  0.93452  0.82043  1.0000
  Y   Y20       1.0  0.38461  0.93465  0.32043  1.0000
  Y   Y21       1.0  0.88467  0.43452  0.07050  1.0000
  Y   Y22       1.0  0.88464  0.43449  0.57049  1.0000
  Y   Y23       1.0  0.88469  0.93453  0.07046  1.0000
  Y   Y24       1.0  0.88471  0.93448  0.57048  1.0000
  Y   Y25       1.0  0.38484  0.31626  0.07042  1.0000
  Y   Y26       1.0  0.38475  0.31631  0.57035  1.0000
  Y   Y27       1.0  0.38466  0.81623  0.07038  1.0000
  Y   Y28       1.0  0.38458  0.81632  0.57044  1.0000
  Y   Y29       1.0  0.88474  0.31616  0.32051  1.0000
  Y   Y30       1.0  0.88475  0.31611  0.82052  1.0000
  Y   Y31       1.0  0.88468  0.81623  0.32045  1.0000
  Y   Y32       1.0  0.88454  0.81625  0.82052  1.0000
  O   O1        1.0  0.22654  0.19710  0.01884  1.0000
  O   O2        1.0  0.22648  0.19707  0.51900  1.0000
  O   O3        1.0  0.22639  0.69701  0.01893  1.0000
  O   O4        1.0  0.22634  0.69701  0.51898  1.0000
  O   O5        1.0  0.72646  0.19691  0.26898  1.0000
  O   O6        1.0  0.72642  0.19685  0.76903  1.0000
  O   O7        1.0  0.72646  0.69702  0.26913  1.0000
  O   O8        1.0  0.72637  0.69691  0.76905  1.0000
  O   O9        1.0  0.49308  0.08827  0.82804  1.0000
  O   O10       1.0  0.49320  0.08838  0.32806  1.0000
  O   O11       1.0  0.49316  0.58830  0.82831  1.0000
  O   O12       1.0  0.49302  0.58854  0.32810  1.0000
  O   O13       1.0  0.99321  0.08831  0.07819  1.0000
  O   O14       1.0  0.99315  0.08834  0.57816  1.0000
  O   O15       1.0  0.99319  0.58830  0.07818  1.0000
  O   O16       1.0  0.99307  0.58831  0.57826  1.0000
  O   O17       1.0  0.27448  0.44708  0.98190  1.0000
  O   O18       1.0  0.27457  0.44707  0.48176  1.0000
  O   O19       1.0  0.27445  0.94700  0.98182  1.0000
  O   O20       1.0  0.27434  0.94708  0.48185  1.0000
  O   O21       1.0  0.77454  0.44703  0.23200  1.0000
  O   O22       1.0  0.77442  0.44694  0.73191  1.0000
  O   O23       1.0  0.77440  0.94686  0.23184  1.0000
  O   O24       1.0  0.77430  0.94687  0.73186  1.0000
  O   O25       1.0  0.27450  0.30384  0.23171  1.0000
  O   O26       1.0  0.27445  0.30384  0.73174  1.0000
  O   O27       1.0  0.27439  0.80386  0.23178  1.0000
  O   O28       1.0  0.27443  0.80385  0.73182  1.0000
  O   O29       1.0  0.77443  0.30371  0.48185  1.0000
  O   O30       1.0  0.77450  0.30365  0.98188  1.0000
  O   O31       1.0  0.77451  0.80371  0.48193  1.0000
  O   O32       1.0  0.77446  0.80371  0.98194  1.0000
  O   O33       1.0  0.00785  0.41234  0.42273  1.0000
  O   O34       1.0  0.00768  0.41247  0.92268  1.0000
  O   O35       1.0  0.00771  0.91253  0.42260  1.0000
  O   O36       1.0  0.00760  0.91256  0.92263  1.0000
  O   O37       1.0  0.50766  0.41248  0.67270  1.0000
  O   O38       1.0  0.50792  0.41233  0.17266  1.0000
  O   O39       1.0  0.50770  0.91242  0.67260  1.0000
  O   O40       1.0  0.50769  0.91241  0.17267  1.0000
  O   O41       1.0  0.00769  0.33828  0.17265  1.0000
  O   O42       1.0  0.00771  0.33834  0.67269  1.0000
  O   O43       1.0  0.00773  0.83841  0.17264  1.0000
  O   O44       1.0  0.00770  0.83848  0.67277  1.0000
  O   O45       1.0  0.50774  0.33838  0.42250  1.0000
  O   O46       1.0  0.50780  0.33829  0.92249  1.0000
  O   O47       1.0  0.50773  0.83846  0.42267  1.0000
  O   O48       1.0  0.50771  0.83827  0.92262  1.0000
  O   O49       1.0  0.49319  0.16243  0.07814  1.0000
  O   O50       1.0  0.49321  0.16251  0.57810  1.0000
  O   O51       1.0  0.49313  0.66241  0.07830  1.0000
  O   O52       1.0  0.49317  0.66258  0.57826  1.0000
  O   O53       1.0  0.99320  0.16242  0.32813  1.0000
  O   O54       1.0  0.99318  0.16237  0.82817  1.0000
  O   O55       1.0  0.99321  0.66253  0.32816  1.0000
  O   O56       1.0  0.99313  0.66255  0.82824  1.0000
  O   O57       1.0  0.22649  0.05389  0.26894  1.0000
  O   O58       1.0  0.22646  0.05377  0.76895  1.0000
  O   O59       1.0  0.22637  0.55383  0.26887  1.0000
  O   O60       1.0  0.22638  0.55389  0.76896  1.0000
  O   O61       1.0  0.72646  0.05369  0.51888  1.0000
  O   O62       1.0  0.72640  0.05373  0.01890  1.0000
  O   O63       1.0  0.72628  0.55376  0.51898  1.0000
  O   O64       1.0  0.72646  0.55367  0.01906  1.0000
