data_image0
_chemical_formula_structural       K8Ti48O96
_chemical_formula_sum              "K8 Ti48 O96"
_cell_length_a       10.1784
_cell_length_b       10.1786
_cell_length_c       17.8243
_cell_angle_alpha    89.9984
_cell_angle_beta     89.9979
_cell_angle_gamma    89.9978

_space_group_name_H-M_alt    "P 1"
_space_group_IT_number       1

loop_
  _space_group_symop_operation_xyz
  'x, y, z'

loop_
  _atom_site_type_symbol
  _atom_site_label
  _atom_site_symmetry_multiplicity
  _atom_site_fract_x
  _atom_site_fract_y
  _atom_site_fract_z
  _atom_site_occupancy
  K   K1        1.0  0.00052  0.00056  0.35929  1.0000
  K   K2        1.0  0.00050  0.00055  0.85925  1.0000
  K   K3        1.0  0.50048  0.50050  0.60924  1.0000
  K   K4        1.0  0.50052  0.50052  0.10924  1.0000
  K   K5        1.0  0.00055  0.00046  0.14123  1.0000
  K   K6        1.0  0.00051  0.00047  0.64106  1.0000
  K   K7        1.0  0.50051  0.50053  0.39110  1.0000
  K   K8        1.0  0.50060  0.50050  0.89118  1.0000
  Ti  Ti1       1.0  0.15090  0.67025  0.00030  1.0000
  Ti  Ti2       1.0  0.15093  0.67023  0.50032  1.0000
  Ti  Ti3       1.0  0.65085  0.17023  0.25028  1.0000
  Ti  Ti4       1.0  0.65091  0.17020  0.75028  1.0000
  Ti  Ti5       1.0  0.83424  0.65020  0.08339  1.0000
  Ti  Ti6       1.0  0.83438  0.65022  0.58339  1.0000
  Ti  Ti7       1.0  0.33415  0.15028  0.33335  1.0000
  Ti  Ti8       1.0  0.33422  0.15024  0.83337  1.0000
  Ti  Ti9       1.0  0.16668  0.35083  0.91723  1.0000
  Ti  Ti10      1.0  0.16671  0.35087  0.41727  1.0000
  Ti  Ti11      1.0  0.66667  0.85079  0.16725  1.0000
  Ti  Ti12      1.0  0.66668  0.85080  0.66722  1.0000
  Ti  Ti13      1.0  0.16672  0.35087  0.08328  1.0000
  Ti  Ti14      1.0  0.16681  0.35086  0.58338  1.0000
  Ti  Ti15      1.0  0.66671  0.85087  0.33338  1.0000
  Ti  Ti16      1.0  0.66665  0.85091  0.83332  1.0000
  Ti  Ti17      1.0  0.85083  0.33429  0.16723  1.0000
  Ti  Ti18      1.0  0.85081  0.33424  0.66722  1.0000
  Ti  Ti19      1.0  0.35084  0.83425  0.41717  1.0000
  Ti  Ti20      1.0  0.35075  0.83434  0.91721  1.0000
  Ti  Ti21      1.0  0.34998  0.83095  0.25027  1.0000
  Ti  Ti22      1.0  0.34995  0.83086  0.75030  1.0000
  Ti  Ti23      1.0  0.85003  0.33095  0.50030  1.0000
  Ti  Ti24      1.0  0.85000  0.33093  0.00027  1.0000
  Ti  Ti25      1.0  0.65025  0.16665  0.08336  1.0000
  Ti  Ti26      1.0  0.65028  0.16667  0.58335  1.0000
  Ti  Ti27      1.0  0.15020  0.66667  0.33336  1.0000
  Ti  Ti28      1.0  0.15016  0.66667  0.83336  1.0000
  Ti  Ti29      1.0  0.65013  0.16664  0.91726  1.0000
  Ti  Ti30      1.0  0.65015  0.16664  0.41726  1.0000
  Ti  Ti31      1.0  0.15013  0.66671  0.16721  1.0000
  Ti  Ti32      1.0  0.15014  0.66666  0.66724  1.0000
  Ti  Ti33      1.0  0.33082  0.15090  0.00034  1.0000
  Ti  Ti34      1.0  0.33084  0.15084  0.50031  1.0000
  Ti  Ti35      1.0  0.83078  0.65089  0.25033  1.0000
  Ti  Ti36      1.0  0.83067  0.65083  0.75031  1.0000
  Ti  Ti37      1.0  0.33426  0.15019  0.16724  1.0000
  Ti  Ti38      1.0  0.33437  0.15019  0.66723  1.0000
  Ti  Ti39      1.0  0.83429  0.65016  0.41726  1.0000
  Ti  Ti40      1.0  0.83433  0.65024  0.91722  1.0000
  Ti  Ti41      1.0  0.17009  0.35008  0.25023  1.0000
  Ti  Ti42      1.0  0.17010  0.34998  0.75032  1.0000
  Ti  Ti43      1.0  0.67012  0.84992  0.50030  1.0000
  Ti  Ti44      1.0  0.67010  0.84998  0.00026  1.0000
  Ti  Ti45      1.0  0.35083  0.83416  0.08336  1.0000
  Ti  Ti46      1.0  0.35077  0.83426  0.58336  1.0000
  Ti  Ti47      1.0  0.85087  0.33414  0.33338  1.0000
  Ti  Ti48      1.0  0.85071  0.33416  0.83336  1.0000
  O   O1        1.0  0.65683  0.29542  0.16670  1.0000
  O   O2        1.0  0.65683  0.29544  0.66671  1.0000
  O   O3        1.0  0.15682  0.79539  0.41669  1.0000
  O   O4        1.0  0.15680  0.79545  0.91669  1.0000
  O   O5        1.0  0.46069  0.16471  0.25029  1.0000
  O   O6        1.0  0.46079  0.16462  0.75028  1.0000
  O   O7        1.0  0.96077  0.66470  0.50030  1.0000
  O   O8        1.0  0.96074  0.66464  0.00028  1.0000
  O   O9        1.0  0.16632  0.54053  0.91702  1.0000
  O   O10       1.0  0.16624  0.54051  0.41701  1.0000
  O   O11       1.0  0.66636  0.04049  0.16701  1.0000
  O   O12       1.0  0.66638  0.04046  0.66700  1.0000
  O   O13       1.0  0.16635  0.54052  0.08355  1.0000
  O   O14       1.0  0.16617  0.54050  0.58358  1.0000
  O   O15       1.0  0.66627  0.04050  0.33357  1.0000
  O   O16       1.0  0.66626  0.04049  0.83360  1.0000
  O   O17       1.0  0.83474  0.46050  0.08356  1.0000
  O   O18       1.0  0.83458  0.46052  0.58357  1.0000
  O   O19       1.0  0.33462  0.96050  0.33356  1.0000
  O   O20       1.0  0.33471  0.96052  0.83361  1.0000
  O   O21       1.0  0.29541  0.34415  0.16668  1.0000
  O   O22       1.0  0.29542  0.34415  0.66671  1.0000
  O   O23       1.0  0.79544  0.84415  0.41671  1.0000
  O   O24       1.0  0.79539  0.84414  0.91667  1.0000
  O   O25       1.0  0.29595  0.34478  0.00024  1.0000
  O   O26       1.0  0.29586  0.34478  0.50025  1.0000
  O   O27       1.0  0.79581  0.84476  0.25029  1.0000
  O   O28       1.0  0.79583  0.84478  0.75027  1.0000
  O   O29       1.0  0.79533  0.84409  0.08386  1.0000
  O   O30       1.0  0.79541  0.84410  0.58382  1.0000
  O   O31       1.0  0.29535  0.34416  0.33383  1.0000
  O   O32       1.0  0.29538  0.34414  0.83387  1.0000
  O   O33       1.0  0.04018  0.33625  0.00026  1.0000
  O   O34       1.0  0.04021  0.33637  0.50028  1.0000
  O   O35       1.0  0.54013  0.83632  0.25029  1.0000
  O   O36       1.0  0.54017  0.83637  0.75024  1.0000
  O   O37       1.0  0.04047  0.33486  0.16695  1.0000
  O   O38       1.0  0.04052  0.33462  0.66695  1.0000
  O   O39       1.0  0.54048  0.83480  0.41698  1.0000
  O   O40       1.0  0.54047  0.83473  0.91693  1.0000
  O   O41       1.0  0.65624  0.29586  0.00029  1.0000
  O   O42       1.0  0.65623  0.29582  0.50029  1.0000
  O   O43       1.0  0.15611  0.79587  0.25027  1.0000
  O   O44       1.0  0.15620  0.79589  0.75028  1.0000
  O   O45       1.0  0.15680  0.79545  0.08385  1.0000
  O   O46       1.0  0.15677  0.79543  0.58388  1.0000
  O   O47       1.0  0.65679  0.29538  0.33387  1.0000
  O   O48       1.0  0.65676  0.29540  0.83384  1.0000
  O   O49       1.0  0.84475  0.20513  0.25029  1.0000
  O   O50       1.0  0.84477  0.20507  0.75025  1.0000
  O   O51       1.0  0.34475  0.70514  0.50030  1.0000
  O   O52       1.0  0.34478  0.70516  0.00026  1.0000
  O   O53       1.0  0.84415  0.20557  0.08387  1.0000
  O   O54       1.0  0.84415  0.20555  0.58385  1.0000
  O   O55       1.0  0.34413  0.70555  0.33382  1.0000
  O   O56       1.0  0.34412  0.70559  0.83384  1.0000
  O   O57       1.0  0.46051  0.16625  0.91694  1.0000
  O   O58       1.0  0.46045  0.16624  0.41690  1.0000
  O   O59       1.0  0.96048  0.66630  0.16694  1.0000
  O   O60       1.0  0.96050  0.66618  0.66700  1.0000
  O   O61       1.0  0.46052  0.16618  0.08359  1.0000
  O   O62       1.0  0.46050  0.16632  0.58359  1.0000
  O   O63       1.0  0.96050  0.66620  0.33360  1.0000
  O   O64       1.0  0.96051  0.66628  0.83358  1.0000
  O   O65       1.0  0.20499  0.15620  0.25026  1.0000
  O   O66       1.0  0.20510  0.15619  0.75027  1.0000
  O   O67       1.0  0.70509  0.65616  0.50028  1.0000
  O   O68       1.0  0.70516  0.65618  0.00026  1.0000
  O   O69       1.0  0.70558  0.65678  0.16672  1.0000
  O   O70       1.0  0.70556  0.65680  0.66671  1.0000
  O   O71       1.0  0.20555  0.15687  0.41670  1.0000
  O   O72       1.0  0.20556  0.15686  0.91672  1.0000
  O   O73       1.0  0.20555  0.15687  0.08383  1.0000
  O   O74       1.0  0.20562  0.15684  0.58386  1.0000
  O   O75       1.0  0.70558  0.65684  0.33386  1.0000
  O   O76       1.0  0.70556  0.65684  0.83385  1.0000
  O   O77       1.0  0.66460  0.04015  0.00029  1.0000
  O   O78       1.0  0.66452  0.04017  0.50027  1.0000
  O   O79       1.0  0.16463  0.54019  0.25028  1.0000
  O   O80       1.0  0.16482  0.54019  0.75029  1.0000
  O   O81       1.0  0.83638  0.46075  0.25031  1.0000
  O   O82       1.0  0.83634  0.46074  0.75027  1.0000
  O   O83       1.0  0.33632  0.96076  0.50025  1.0000
  O   O84       1.0  0.33631  0.96075  0.00030  1.0000
  O   O85       1.0  0.33465  0.96050  0.16693  1.0000
  O   O86       1.0  0.33469  0.96054  0.66696  1.0000
  O   O87       1.0  0.83462  0.46047  0.41696  1.0000
  O   O88       1.0  0.83481  0.46050  0.91691  1.0000
  O   O89       1.0  0.54048  0.83474  0.08357  1.0000
  O   O90       1.0  0.54044  0.83469  0.58357  1.0000
  O   O91       1.0  0.04050  0.33466  0.33361  1.0000
  O   O92       1.0  0.04046  0.33474  0.83357  1.0000
  O   O93       1.0  0.34414  0.70558  0.16667  1.0000
  O   O94       1.0  0.34416  0.70559  0.66668  1.0000
  O   O95       1.0  0.84416  0.20553  0.41672  1.0000
  O   O96       1.0  0.84411  0.20554  0.91666  1.0000
