data_image0
_chemical_formula_structural       Rb32Zr16O48
_chemical_formula_sum              "Rb32 Zr16 O48"
_cell_length_a       10.7828
_cell_length_b       14.763
_cell_length_c       11.8027
_cell_angle_alpha    90.0004
_cell_angle_beta     89.9992
_cell_angle_gamma    89.9946

_space_group_name_H-M_alt    "P 1"
_space_group_IT_number       1

loop_
  _space_group_symop_operation_xyz
  'x, y, z'

loop_
  _atom_site_type_symbol
  _atom_site_label
  _atom_site_symmetry_multiplicity
  _atom_site_fract_x
  _atom_site_fract_y
  _atom_site_fract_z
  _atom_site_occupancy
  Rb  Rb1       1.0  0.83762  0.32101  0.12773  1.0000
  Rb  Rb2       1.0  0.83789  0.32125  0.62780  1.0000
  Rb  Rb3       1.0  0.33753  0.57121  0.12789  1.0000
  Rb  Rb4       1.0  0.33779  0.57117  0.62772  1.0000
  Rb  Rb5       1.0  0.83777  0.82124  0.12767  1.0000
  Rb  Rb6       1.0  0.83784  0.82121  0.62757  1.0000
  Rb  Rb7       1.0  0.33762  0.07110  0.12785  1.0000
  Rb  Rb8       1.0  0.33761  0.07113  0.62771  1.0000
  Rb  Rb9       1.0  0.83760  0.17943  0.37759  1.0000
  Rb  Rb10      1.0  0.83773  0.17954  0.87779  1.0000
  Rb  Rb11      1.0  0.33776  0.42963  0.37770  1.0000
  Rb  Rb12      1.0  0.33758  0.42956  0.87760  1.0000
  Rb  Rb13      1.0  0.83768  0.67939  0.37770  1.0000
  Rb  Rb14      1.0  0.83781  0.67946  0.87768  1.0000
  Rb  Rb15      1.0  0.33762  0.92953  0.37756  1.0000
  Rb  Rb16      1.0  0.33777  0.92964  0.87775  1.0000
  Rb  Rb17      1.0  0.16338  0.17955  0.37773  1.0000
  Rb  Rb18      1.0  0.16314  0.17944  0.87781  1.0000
  Rb  Rb19      1.0  0.66323  0.42955  0.37771  1.0000
  Rb  Rb20      1.0  0.66340  0.42938  0.87768  1.0000
  Rb  Rb21      1.0  0.16317  0.67953  0.37767  1.0000
  Rb  Rb22      1.0  0.16322  0.67962  0.87752  1.0000
  Rb  Rb23      1.0  0.66314  0.92943  0.37774  1.0000
  Rb  Rb24      1.0  0.66331  0.92946  0.87775  1.0000
  Rb  Rb25      1.0  0.16343  0.32112  0.12764  1.0000
  Rb  Rb26      1.0  0.16321  0.32118  0.62755  1.0000
  Rb  Rb27      1.0  0.66338  0.57119  0.12784  1.0000
  Rb  Rb28      1.0  0.66300  0.57107  0.62770  1.0000
  Rb  Rb29      1.0  0.16322  0.82119  0.12762  1.0000
  Rb  Rb30      1.0  0.16333  0.82108  0.62786  1.0000
  Rb  Rb31      1.0  0.66302  0.07131  0.12756  1.0000
  Rb  Rb32      1.0  0.66332  0.07123  0.62763  1.0000
  Zr  Zr1       1.0  0.00054  0.45651  0.36892  1.0000
  Zr  Zr2       1.0  0.00050  0.45647  0.86894  1.0000
  Zr  Zr3       1.0  0.50048  0.70645  0.36897  1.0000
  Zr  Zr4       1.0  0.50051  0.70651  0.86895  1.0000
  Zr  Zr5       1.0  0.00060  0.95647  0.36897  1.0000
  Zr  Zr6       1.0  0.00053  0.95653  0.86894  1.0000
  Zr  Zr7       1.0  0.50033  0.20647  0.36896  1.0000
  Zr  Zr8       1.0  0.50051  0.20652  0.86902  1.0000
  Zr  Zr9       1.0  0.00048  0.04425  0.11895  1.0000
  Zr  Zr10      1.0  0.00046  0.04417  0.61896  1.0000
  Zr  Zr11      1.0  0.50051  0.29421  0.11899  1.0000
  Zr  Zr12      1.0  0.50044  0.29419  0.61897  1.0000
  Zr  Zr13      1.0  0.00040  0.54418  0.11893  1.0000
  Zr  Zr14      1.0  0.00040  0.54423  0.61894  1.0000
  Zr  Zr15      1.0  0.50047  0.79417  0.11897  1.0000
  Zr  Zr16      1.0  0.50055  0.79421  0.61895  1.0000
  O   O1        1.0  0.62470  0.25487  0.24709  1.0000
  O   O2        1.0  0.62468  0.25505  0.74713  1.0000
  O   O3        1.0  0.12469  0.50493  0.24701  1.0000
  O   O4        1.0  0.12467  0.50485  0.74688  1.0000
  O   O5        1.0  0.62473  0.75486  0.24703  1.0000
  O   O6        1.0  0.62479  0.75495  0.74702  1.0000
  O   O7        1.0  0.12478  0.00481  0.24701  1.0000
  O   O8        1.0  0.12483  0.00484  0.74703  1.0000
  O   O9        1.0  0.62470  0.24583  0.49705  1.0000
  O   O10       1.0  0.62475  0.24592  0.99703  1.0000
  O   O11       1.0  0.12479  0.49583  0.49699  1.0000
  O   O12       1.0  0.12474  0.49577  0.99706  1.0000
  O   O13       1.0  0.62477  0.74580  0.49701  1.0000
  O   O14       1.0  0.62484  0.74591  0.99699  1.0000
  O   O15       1.0  0.12478  0.99564  0.49710  1.0000
  O   O16       1.0  0.12481  0.99596  0.99702  1.0000
  O   O17       1.0  0.00053  0.32712  0.35418  1.0000
  O   O18       1.0  0.00056  0.32709  0.85416  1.0000
  O   O19       1.0  0.50051  0.57704  0.35430  1.0000
  O   O20       1.0  0.50037  0.57712  0.85421  1.0000
  O   O21       1.0  0.00046  0.82709  0.35427  1.0000
  O   O22       1.0  0.00076  0.82715  0.85426  1.0000
  O   O23       1.0  0.50036  0.07709  0.35421  1.0000
  O   O24       1.0  0.50063  0.07712  0.85429  1.0000
  O   O25       1.0  0.00057  0.17366  0.10440  1.0000
  O   O26       1.0  0.00028  0.17355  0.60414  1.0000
  O   O27       1.0  0.50063  0.42358  0.10414  1.0000
  O   O28       1.0  0.50039  0.42358  0.60429  1.0000
  O   O29       1.0  0.00043  0.67357  0.10410  1.0000
  O   O30       1.0  0.00057  0.67363  0.60439  1.0000
  O   O31       1.0  0.50030  0.92355  0.10432  1.0000
  O   O32       1.0  0.50060  0.92360  0.60417  1.0000
  O   O33       1.0  0.37614  0.24572  0.49703  1.0000
  O   O34       1.0  0.37619  0.24578  0.99714  1.0000
  O   O35       1.0  0.87617  0.49595  0.49700  1.0000
  O   O36       1.0  0.87617  0.49580  0.99703  1.0000
  O   O37       1.0  0.37627  0.74577  0.49706  1.0000
  O   O38       1.0  0.37622  0.74577  0.99699  1.0000
  O   O39       1.0  0.87623  0.99593  0.49696  1.0000
  O   O40       1.0  0.87627  0.99594  0.99699  1.0000
  O   O41       1.0  0.37611  0.25478  0.24697  1.0000
  O   O42       1.0  0.37620  0.25482  0.74708  1.0000
  O   O43       1.0  0.87617  0.50499  0.24709  1.0000
  O   O44       1.0  0.87617  0.50489  0.74704  1.0000
  O   O45       1.0  0.37619  0.75485  0.24705  1.0000
  O   O46       1.0  0.37622  0.75485  0.74697  1.0000
  O   O47       1.0  0.87626  0.00491  0.24703  1.0000
  O   O48       1.0  0.87626  0.00494  0.74707  1.0000
