data_image0
_chemical_formula_structural       Ca32Bi32O96
_chemical_formula_sum              "Ca32 Bi32 O96"
_cell_length_a       11.5165
_cell_length_b       12.0501
_cell_length_c       16.6625
_cell_angle_alpha    90
_cell_angle_beta     90
_cell_angle_gamma    90

_space_group_name_H-M_alt    "P 1"
_space_group_IT_number       1

loop_
  _space_group_symop_operation_xyz
  'x, y, z'

loop_
  _atom_site_type_symbol
  _atom_site_label
  _atom_site_symmetry_multiplicity
  _atom_site_fract_x
  _atom_site_fract_y
  _atom_site_fract_z
  _atom_site_occupancy
  Ca  Ca1       1.0  0.00962  0.47104  0.37416  1.0000
  Ca  Ca2       1.0  0.00952  0.47110  0.87405  1.0000
  Ca  Ca3       1.0  0.00959  0.97121  0.37392  1.0000
  Ca  Ca4       1.0  0.00954  0.97110  0.87407  1.0000
  Ca  Ca5       1.0  0.50955  0.47111  0.37420  1.0000
  Ca  Ca6       1.0  0.50960  0.47105  0.87415  1.0000
  Ca  Ca7       1.0  0.50957  0.97114  0.37409  1.0000
  Ca  Ca8       1.0  0.50955  0.97112  0.87419  1.0000
  Ca  Ca9       1.0  0.24125  0.22106  0.37641  1.0000
  Ca  Ca10      1.0  0.24130  0.22100  0.87649  1.0000
  Ca  Ca11      1.0  0.24118  0.72108  0.37658  1.0000
  Ca  Ca12      1.0  0.24142  0.72110  0.87643  1.0000
  Ca  Ca13      1.0  0.74137  0.22099  0.37648  1.0000
  Ca  Ca14      1.0  0.74128  0.22117  0.87664  1.0000
  Ca  Ca15      1.0  0.74156  0.72122  0.37646  1.0000
  Ca  Ca16      1.0  0.74127  0.72118  0.87649  1.0000
  Ca  Ca17      1.0  0.25956  0.27969  0.12416  1.0000
  Ca  Ca18      1.0  0.25976  0.27966  0.62411  1.0000
  Ca  Ca19      1.0  0.25964  0.77973  0.12402  1.0000
  Ca  Ca20      1.0  0.25954  0.77966  0.62414  1.0000
  Ca  Ca21      1.0  0.75936  0.27968  0.12407  1.0000
  Ca  Ca22      1.0  0.75953  0.27974  0.62411  1.0000
  Ca  Ca23      1.0  0.75944  0.77967  0.12421  1.0000
  Ca  Ca24      1.0  0.75961  0.77981  0.62403  1.0000
  Ca  Ca25      1.0  0.49121  0.02980  0.12662  1.0000
  Ca  Ca26      1.0  0.49134  0.02976  0.62651  1.0000
  Ca  Ca27      1.0  0.49131  0.52957  0.12634  1.0000
  Ca  Ca28      1.0  0.49141  0.52975  0.62648  1.0000
  Ca  Ca29      1.0  0.99157  0.02968  0.12639  1.0000
  Ca  Ca30      1.0  0.99141  0.02960  0.62655  1.0000
  Ca  Ca31      1.0  0.99144  0.52964  0.12651  1.0000
  Ca  Ca32      1.0  0.99137  0.52963  0.62652  1.0000
  Bi  Bi1       1.0  0.00027  0.25039  0.25031  1.0000
  Bi  Bi2       1.0  0.00048  0.25032  0.75030  1.0000
  Bi  Bi3       1.0  0.00046  0.75045  0.25020  1.0000
  Bi  Bi4       1.0  0.00034  0.75036  0.75031  1.0000
  Bi  Bi5       1.0  0.50042  0.25046  0.25036  1.0000
  Bi  Bi6       1.0  0.50048  0.25038  0.75033  1.0000
  Bi  Bi7       1.0  0.50034  0.75020  0.25038  1.0000
  Bi  Bi8       1.0  0.50048  0.75044  0.75029  1.0000
  Bi  Bi9       1.0  0.00045  0.25044  0.00037  1.0000
  Bi  Bi10      1.0  0.00049  0.25033  0.50032  1.0000
  Bi  Bi11      1.0  0.00033  0.75033  0.00032  1.0000
  Bi  Bi12      1.0  0.00047  0.75047  0.50032  1.0000
  Bi  Bi13      1.0  0.50039  0.25028  0.00030  1.0000
  Bi  Bi14      1.0  0.50045  0.25045  0.50029  1.0000
  Bi  Bi15      1.0  0.50042  0.75042  0.00031  1.0000
  Bi  Bi16      1.0  0.50044  0.75039  0.50028  1.0000
  Bi  Bi17      1.0  0.25051  0.00037  0.25028  1.0000
  Bi  Bi18      1.0  0.25049  0.00029  0.75025  1.0000
  Bi  Bi19      1.0  0.25042  0.50045  0.25035  1.0000
  Bi  Bi20      1.0  0.25046  0.50038  0.75033  1.0000
  Bi  Bi21      1.0  0.75031  0.00039  0.25031  1.0000
  Bi  Bi22      1.0  0.75043  0.00051  0.75040  1.0000
  Bi  Bi23      1.0  0.75039  0.50032  0.25028  1.0000
  Bi  Bi24      1.0  0.75043  0.50041  0.75028  1.0000
  Bi  Bi25      1.0  0.25045  0.00035  0.00022  1.0000
  Bi  Bi26      1.0  0.25053  0.00039  0.50030  1.0000
  Bi  Bi27      1.0  0.25037  0.50038  0.00032  1.0000
  Bi  Bi28      1.0  0.25041  0.50034  0.50031  1.0000
  Bi  Bi29      1.0  0.75044  0.00033  0.00039  1.0000
  Bi  Bi30      1.0  0.75039  0.00042  0.50031  1.0000
  Bi  Bi31      1.0  0.75051  0.50038  0.00032  1.0000
  Bi  Bi32      1.0  0.75057  0.50041  0.50021  1.0000
  O   O1        1.0  0.06697  0.21729  0.11857  1.0000
  O   O2        1.0  0.06704  0.21716  0.61846  1.0000
  O   O3        1.0  0.06702  0.71731  0.11845  1.0000
  O   O4        1.0  0.06686  0.71726  0.61856  1.0000
  O   O5        1.0  0.56688  0.21722  0.11848  1.0000
  O   O6        1.0  0.56696  0.21734  0.61846  1.0000
  O   O7        1.0  0.56683  0.71714  0.11851  1.0000
  O   O8        1.0  0.56698  0.71730  0.61848  1.0000
  O   O9        1.0  0.08907  0.10381  0.46222  1.0000
  O   O10       1.0  0.08897  0.10379  0.96227  1.0000
  O   O11       1.0  0.08909  0.60392  0.46224  1.0000
  O   O12       1.0  0.08887  0.60371  0.96225  1.0000
  O   O13       1.0  0.58906  0.10392  0.46218  1.0000
  O   O14       1.0  0.58924  0.10392  0.96219  1.0000
  O   O15       1.0  0.58914  0.60377  0.46224  1.0000
  O   O16       1.0  0.58901  0.60379  0.96226  1.0000
  O   O17       1.0  0.10142  0.09253  0.28283  1.0000
  O   O18       1.0  0.10137  0.09239  0.78298  1.0000
  O   O19       1.0  0.10125  0.59250  0.28302  1.0000
  O   O20       1.0  0.10139  0.59257  0.78303  1.0000
  O   O21       1.0  0.60125  0.09250  0.28301  1.0000
  O   O22       1.0  0.60128  0.09260  0.78302  1.0000
  O   O23       1.0  0.60133  0.59241  0.28304  1.0000
  O   O24       1.0  0.60130  0.59242  0.78296  1.0000
  O   O25       1.0  0.14957  0.34244  0.46758  1.0000
  O   O26       1.0  0.14962  0.34236  0.96773  1.0000
  O   O27       1.0  0.14966  0.84245  0.46781  1.0000
  O   O28       1.0  0.14942  0.84240  0.96755  1.0000
  O   O29       1.0  0.64947  0.34254  0.46755  1.0000
  O   O30       1.0  0.64946  0.34249  0.96773  1.0000
  O   O31       1.0  0.64953  0.84251  0.46753  1.0000
  O   O32       1.0  0.64953  0.84252  0.96770  1.0000
  O   O33       1.0  0.16162  0.35396  0.28844  1.0000
  O   O34       1.0  0.16172  0.35393  0.78855  1.0000
  O   O35       1.0  0.16170  0.85392  0.28846  1.0000
  O   O36       1.0  0.16179  0.85375  0.78832  1.0000
  O   O37       1.0  0.66178  0.35386  0.28845  1.0000
  O   O38       1.0  0.66177  0.35387  0.78846  1.0000
  O   O39       1.0  0.66166  0.85389  0.28844  1.0000
  O   O40       1.0  0.66158  0.85413  0.78865  1.0000
  O   O41       1.0  0.18400  0.46728  0.13216  1.0000
  O   O42       1.0  0.18390  0.46718  0.63220  1.0000
  O   O43       1.0  0.18407  0.96723  0.13207  1.0000
  O   O44       1.0  0.18393  0.96714  0.63212  1.0000
  O   O45       1.0  0.68382  0.46720  0.13212  1.0000
  O   O46       1.0  0.68405  0.46729  0.63210  1.0000
  O   O47       1.0  0.68378  0.96720  0.13213  1.0000
  O   O48       1.0  0.68388  0.96729  0.63222  1.0000
  O   O49       1.0  0.31701  0.03355  0.36844  1.0000
  O   O50       1.0  0.31695  0.03344  0.86842  1.0000
  O   O51       1.0  0.31690  0.53362  0.36853  1.0000
  O   O52       1.0  0.31699  0.53355  0.86848  1.0000
  O   O53       1.0  0.81688  0.03338  0.36847  1.0000
  O   O54       1.0  0.81698  0.03368  0.86850  1.0000
  O   O55       1.0  0.81713  0.53365  0.36841  1.0000
  O   O56       1.0  0.81696  0.53375  0.86838  1.0000
  O   O57       1.0  0.33919  0.14690  0.21221  1.0000
  O   O58       1.0  0.33926  0.14675  0.71210  1.0000
  O   O59       1.0  0.33888  0.64707  0.21222  1.0000
  O   O60       1.0  0.33915  0.64692  0.71227  1.0000
  O   O61       1.0  0.83884  0.14702  0.21234  1.0000
  O   O62       1.0  0.83919  0.14694  0.71212  1.0000
  O   O63       1.0  0.83904  0.64694  0.21220  1.0000
  O   O64       1.0  0.83903  0.64691  0.71212  1.0000
  O   O65       1.0  0.35137  0.15806  0.03311  1.0000
  O   O66       1.0  0.35135  0.15832  0.53288  1.0000
  O   O67       1.0  0.35128  0.65832  0.03291  1.0000
  O   O68       1.0  0.35132  0.65828  0.53299  1.0000
  O   O69       1.0  0.85137  0.15826  0.03307  1.0000
  O   O70       1.0  0.85127  0.15839  0.53285  1.0000
  O   O71       1.0  0.85122  0.65827  0.03310  1.0000
  O   O72       1.0  0.85124  0.65841  0.53282  1.0000
  O   O73       1.0  0.39960  0.40844  0.21772  1.0000
  O   O74       1.0  0.39953  0.40834  0.71764  1.0000
  O   O75       1.0  0.39953  0.90815  0.21759  1.0000
  O   O76       1.0  0.39951  0.90815  0.71751  1.0000
  O   O77       1.0  0.89940  0.40817  0.21754  1.0000
  O   O78       1.0  0.89961  0.40831  0.71772  1.0000
  O   O79       1.0  0.89952  0.90847  0.21765  1.0000
  O   O80       1.0  0.89954  0.90833  0.71775  1.0000
  O   O81       1.0  0.41156  0.39673  0.03838  1.0000
  O   O82       1.0  0.41169  0.39690  0.53853  1.0000
  O   O83       1.0  0.41180  0.89693  0.03847  1.0000
  O   O84       1.0  0.41189  0.89700  0.53841  1.0000
  O   O85       1.0  0.91173  0.39695  0.03846  1.0000
  O   O86       1.0  0.91188  0.39690  0.53846  1.0000
  O   O87       1.0  0.91169  0.89675  0.03858  1.0000
  O   O88       1.0  0.91163  0.89688  0.53861  1.0000
  O   O89       1.0  0.43378  0.28361  0.38213  1.0000
  O   O90       1.0  0.43388  0.28332  0.88214  1.0000
  O   O91       1.0  0.43371  0.78359  0.38222  1.0000
  O   O92       1.0  0.43392  0.78368  0.88219  1.0000
  O   O93       1.0  0.93393  0.28343  0.38218  1.0000
  O   O94       1.0  0.93386  0.28355  0.88219  1.0000
  O   O95       1.0  0.93412  0.78373  0.38214  1.0000
  O   O96       1.0  0.93370  0.78367  0.88224  1.0000
