data_image0
_chemical_formula_structural       Rb48In16O48
_chemical_formula_sum              "Rb48 In16 O48"
_cell_length_a       13.8218
_cell_length_b       14.0825
_cell_length_c       12.9587
_cell_angle_alpha    90.5297
_cell_angle_beta     90.0102
_cell_angle_gamma    90.0164

_space_group_name_H-M_alt    "P 1"
_space_group_IT_number       1

loop_
  _space_group_symop_operation_xyz
  'x, y, z'

loop_
  _atom_site_type_symbol
  _atom_site_label
  _atom_site_symmetry_multiplicity
  _atom_site_fract_x
  _atom_site_fract_y
  _atom_site_fract_z
  _atom_site_occupancy
  Rb  Rb1       1.0  0.27055  0.84255  0.89757  1.0000
  Rb  Rb2       1.0  0.27048  0.34256  0.89775  1.0000
  Rb  Rb3       1.0  0.77061  0.84264  0.89776  1.0000
  Rb  Rb4       1.0  0.77045  0.34253  0.89768  1.0000
  Rb  Rb5       1.0  0.48244  0.19084  0.11847  1.0000
  Rb  Rb6       1.0  0.48224  0.69070  0.11854  1.0000
  Rb  Rb7       1.0  0.98237  0.19058  0.11856  1.0000
  Rb  Rb8       1.0  0.98228  0.69061  0.11844  1.0000
  Rb  Rb9       1.0  0.29262  0.39978  0.18604  1.0000
  Rb  Rb10      1.0  0.29244  0.89974  0.18609  1.0000
  Rb  Rb11      1.0  0.79254  0.39984  0.18608  1.0000
  Rb  Rb12      1.0  0.79250  0.89968  0.18604  1.0000
  Rb  Rb13      1.0  0.04247  0.35094  0.31464  1.0000
  Rb  Rb14      1.0  0.04240  0.85102  0.31471  1.0000
  Rb  Rb15      1.0  0.54249  0.35110  0.31478  1.0000
  Rb  Rb16      1.0  0.54249  0.85108  0.31462  1.0000
  Rb  Rb17      1.0  0.23228  0.55991  0.38250  1.0000
  Rb  Rb18      1.0  0.23228  0.05994  0.38238  1.0000
  Rb  Rb19      1.0  0.73239  0.56015  0.38236  1.0000
  Rb  Rb20      1.0  0.73230  0.06008  0.38235  1.0000
  Rb  Rb21      1.0  0.02048  0.40826  0.60293  1.0000
  Rb  Rb22      1.0  0.02054  0.90820  0.60323  1.0000
  Rb  Rb23      1.0  0.52059  0.40831  0.60324  1.0000
  Rb  Rb24      1.0  0.52060  0.90821  0.60312  1.0000
  Rb  Rb25      1.0  0.48018  0.59258  0.39759  1.0000
  Rb  Rb26      1.0  0.48008  0.09253  0.39764  1.0000
  Rb  Rb27      1.0  0.98005  0.59258  0.39783  1.0000
  Rb  Rb28      1.0  0.98014  0.09252  0.39770  1.0000
  Rb  Rb29      1.0  0.26845  0.44070  0.61850  1.0000
  Rb  Rb30      1.0  0.26847  0.94073  0.61846  1.0000
  Rb  Rb31      1.0  0.76831  0.44069  0.61845  1.0000
  Rb  Rb32      1.0  0.76833  0.94066  0.61842  1.0000
  Rb  Rb33      1.0  0.45832  0.64988  0.68610  1.0000
  Rb  Rb34      1.0  0.45833  0.14982  0.68601  1.0000
  Rb  Rb35      1.0  0.95829  0.64976  0.68610  1.0000
  Rb  Rb36      1.0  0.95823  0.14979  0.68598  1.0000
  Rb  Rb37      1.0  0.20821  0.60096  0.81478  1.0000
  Rb  Rb38      1.0  0.20820  0.10092  0.81463  1.0000
  Rb  Rb39      1.0  0.70820  0.60095  0.81458  1.0000
  Rb  Rb40      1.0  0.70815  0.10098  0.81480  1.0000
  Rb  Rb41      1.0  0.01839  0.80998  0.88239  1.0000
  Rb  Rb42      1.0  0.01836  0.31015  0.88237  1.0000
  Rb  Rb43      1.0  0.51843  0.81010  0.88248  1.0000
  Rb  Rb44      1.0  0.51830  0.31016  0.88230  1.0000
  Rb  Rb45      1.0  0.23016  0.15819  0.10321  1.0000
  Rb  Rb46      1.0  0.23012  0.65826  0.10309  1.0000
  Rb  Rb47      1.0  0.73022  0.15827  0.10314  1.0000
  Rb  Rb48      1.0  0.73017  0.65822  0.10319  1.0000
  In  In1       1.0  0.06641  0.45922  0.08531  1.0000
  In  In2       1.0  0.06637  0.95920  0.08524  1.0000
  In  In3       1.0  0.56632  0.45914  0.08529  1.0000
  In  In4       1.0  0.56642  0.95925  0.08529  1.0000
  In  In5       1.0  0.31642  0.29163  0.41546  1.0000
  In  In6       1.0  0.31629  0.79159  0.41541  1.0000
  In  In7       1.0  0.81639  0.29164  0.41551  1.0000
  In  In8       1.0  0.81640  0.79166  0.41554  1.0000
  In  In9       1.0  0.18428  0.70921  0.58530  1.0000
  In  In10      1.0  0.18430  0.20920  0.58524  1.0000
  In  In11      1.0  0.68435  0.70916  0.58530  1.0000
  In  In12      1.0  0.68434  0.20916  0.58540  1.0000
  In  In13      1.0  0.43442  0.54163  0.91537  1.0000
  In  In14      1.0  0.43430  0.04163  0.91545  1.0000
  In  In15      1.0  0.93431  0.54164  0.91542  1.0000
  In  In16      1.0  0.93438  0.04167  0.91538  1.0000
  O   O1        1.0  0.13080  0.32854  0.07283  1.0000
  O   O2        1.0  0.13072  0.82854  0.07277  1.0000
  O   O3        1.0  0.63080  0.32851  0.07284  1.0000
  O   O4        1.0  0.63075  0.82849  0.07304  1.0000
  O   O5        1.0  0.41830  0.44571  0.03975  1.0000
  O   O6        1.0  0.41842  0.94560  0.03964  1.0000
  O   O7        1.0  0.91838  0.44571  0.03966  1.0000
  O   O8        1.0  0.91832  0.94557  0.03955  1.0000
  O   O9        1.0  0.35225  0.22283  0.28078  1.0000
  O   O10       1.0  0.35224  0.72275  0.28071  1.0000
  O   O11       1.0  0.85235  0.22279  0.28079  1.0000
  O   O12       1.0  0.85236  0.72274  0.28090  1.0000
  O   O13       1.0  0.10233  0.52808  0.22003  1.0000
  O   O14       1.0  0.10215  0.02795  0.22005  1.0000
  O   O15       1.0  0.60222  0.52807  0.21997  1.0000
  O   O16       1.0  0.60232  0.02799  0.22005  1.0000
  O   O17       1.0  0.16843  0.30530  0.46106  1.0000
  O   O18       1.0  0.16836  0.80524  0.46104  1.0000
  O   O19       1.0  0.66850  0.30524  0.46122  1.0000
  O   O20       1.0  0.66841  0.80529  0.46117  1.0000
  O   O21       1.0  0.38091  0.42226  0.42794  1.0000
  O   O22       1.0  0.38079  0.92223  0.42789  1.0000
  O   O23       1.0  0.88086  0.42231  0.42783  1.0000
  O   O24       1.0  0.88086  0.92230  0.42802  1.0000
  O   O25       1.0  0.11990  0.57846  0.57293  1.0000
  O   O26       1.0  0.11992  0.07844  0.57292  1.0000
  O   O27       1.0  0.61995  0.57845  0.57289  1.0000
  O   O28       1.0  0.61984  0.07853  0.57282  1.0000
  O   O29       1.0  0.33217  0.69553  0.53964  1.0000
  O   O30       1.0  0.33226  0.19558  0.53964  1.0000
  O   O31       1.0  0.83238  0.69564  0.53974  1.0000
  O   O32       1.0  0.83230  0.19561  0.53970  1.0000
  O   O33       1.0  0.39846  0.47287  0.78066  1.0000
  O   O34       1.0  0.39845  0.97268  0.78084  1.0000
  O   O35       1.0  0.89843  0.47260  0.78081  1.0000
  O   O36       1.0  0.89856  0.97282  0.78067  1.0000
  O   O37       1.0  0.14844  0.77810  0.71996  1.0000
  O   O38       1.0  0.14850  0.27813  0.71996  1.0000
  O   O39       1.0  0.64846  0.77797  0.72003  1.0000
  O   O40       1.0  0.64850  0.27806  0.72004  1.0000
  O   O41       1.0  0.08229  0.55523  0.96109  1.0000
  O   O42       1.0  0.08224  0.05523  0.96109  1.0000
  O   O43       1.0  0.58232  0.55520  0.96114  1.0000
  O   O44       1.0  0.58227  0.05516  0.96105  1.0000
  O   O45       1.0  0.36994  0.67227  0.92796  1.0000
  O   O46       1.0  0.36989  0.17228  0.92790  1.0000
  O   O47       1.0  0.86984  0.67228  0.92790  1.0000
  O   O48       1.0  0.86987  0.17230  0.92780  1.0000
