data_image0
_chemical_formula_structural       Cs32Ca16O32
_chemical_formula_sum              "Cs32 Ca16 O32"
_cell_length_a       12.9523
_cell_length_b       13.4776
_cell_length_c       11.4307
_cell_angle_alpha    90
_cell_angle_beta     90
_cell_angle_gamma    90

_space_group_name_H-M_alt    "P 1"
_space_group_IT_number       1

loop_
  _space_group_symop_operation_xyz
  'x, y, z'

loop_
  _atom_site_type_symbol
  _atom_site_label
  _atom_site_symmetry_multiplicity
  _atom_site_fract_x
  _atom_site_fract_y
  _atom_site_fract_z
  _atom_site_occupancy
  Cs  Cs1       1.0  0.28981  0.19150  0.15750  1.0000
  Cs  Cs2       1.0  0.28965  0.69160  0.15749  1.0000
  Cs  Cs3       1.0  0.78984  0.19158  0.15764  1.0000
  Cs  Cs4       1.0  0.78975  0.69148  0.15749  1.0000
  Cs  Cs5       1.0  0.03982  0.30907  0.15747  1.0000
  Cs  Cs6       1.0  0.03962  0.80899  0.15752  1.0000
  Cs  Cs7       1.0  0.53969  0.30918  0.15744  1.0000
  Cs  Cs8       1.0  0.53983  0.80910  0.15752  1.0000
  Cs  Cs9       1.0  0.03976  0.05908  0.34332  1.0000
  Cs  Cs10      1.0  0.03975  0.55910  0.34326  1.0000
  Cs  Cs11      1.0  0.53968  0.05906  0.34318  1.0000
  Cs  Cs12      1.0  0.53966  0.55900  0.34341  1.0000
  Cs  Cs13      1.0  0.28968  0.44162  0.34330  1.0000
  Cs  Cs14      1.0  0.28977  0.94148  0.34330  1.0000
  Cs  Cs15      1.0  0.78972  0.44160  0.34345  1.0000
  Cs  Cs16      1.0  0.78973  0.94148  0.34334  1.0000
  Cs  Cs17      1.0  0.21094  0.05908  0.65734  1.0000
  Cs  Cs18      1.0  0.21130  0.55909  0.65734  1.0000
  Cs  Cs19      1.0  0.71103  0.05909  0.65750  1.0000
  Cs  Cs20      1.0  0.71112  0.55901  0.65762  1.0000
  Cs  Cs21      1.0  0.46111  0.44143  0.65754  1.0000
  Cs  Cs22      1.0  0.46111  0.94155  0.65737  1.0000
  Cs  Cs23      1.0  0.96117  0.44164  0.65752  1.0000
  Cs  Cs24      1.0  0.96098  0.94172  0.65743  1.0000
  Cs  Cs25      1.0  0.46096  0.19158  0.84341  1.0000
  Cs  Cs26      1.0  0.46113  0.69164  0.84323  1.0000
  Cs  Cs27      1.0  0.96114  0.19163  0.84329  1.0000
  Cs  Cs28      1.0  0.96102  0.69153  0.84344  1.0000
  Cs  Cs29      1.0  0.21118  0.30923  0.84324  1.0000
  Cs  Cs30      1.0  0.21108  0.80903  0.84317  1.0000
  Cs  Cs31      1.0  0.71112  0.30906  0.84335  1.0000
  Cs  Cs32      1.0  0.71108  0.80900  0.84323  1.0000
  Ca  Ca1       1.0  0.12535  0.00952  0.00032  1.0000
  Ca  Ca2       1.0  0.12542  0.50962  0.00038  1.0000
  Ca  Ca3       1.0  0.62539  0.00958  0.00044  1.0000
  Ca  Ca4       1.0  0.62545  0.50970  0.00038  1.0000
  Ca  Ca5       1.0  0.37540  0.49115  0.00045  1.0000
  Ca  Ca6       1.0  0.37533  0.99095  0.00035  1.0000
  Ca  Ca7       1.0  0.87541  0.49098  0.00037  1.0000
  Ca  Ca8       1.0  0.87534  0.99102  0.00040  1.0000
  Ca  Ca9       1.0  0.37540  0.24108  0.50035  1.0000
  Ca  Ca10      1.0  0.37547  0.74096  0.50038  1.0000
  Ca  Ca11      1.0  0.87544  0.24106  0.50047  1.0000
  Ca  Ca12      1.0  0.87546  0.74105  0.50048  1.0000
  Ca  Ca13      1.0  0.12539  0.25958  0.50033  1.0000
  Ca  Ca14      1.0  0.12544  0.75963  0.50041  1.0000
  Ca  Ca15      1.0  0.62542  0.25963  0.50042  1.0000
  Ca  Ca16      1.0  0.62550  0.75950  0.50046  1.0000
  O   O1        1.0  0.49435  0.08749  0.09614  1.0000
  O   O2        1.0  0.49446  0.58761  0.09621  1.0000
  O   O3        1.0  0.99444  0.08756  0.09611  1.0000
  O   O4        1.0  0.99442  0.58758  0.09617  1.0000
  O   O5        1.0  0.24443  0.41311  0.09614  1.0000
  O   O6        1.0  0.24440  0.91291  0.09607  1.0000
  O   O7        1.0  0.74446  0.41314  0.09616  1.0000
  O   O8        1.0  0.74442  0.91315  0.09616  1.0000
  O   O9        1.0  0.24447  0.16297  0.40465  1.0000
  O   O10       1.0  0.24445  0.66303  0.40460  1.0000
  O   O11       1.0  0.74450  0.16303  0.40479  1.0000
  O   O12       1.0  0.74450  0.66297  0.40470  1.0000
  O   O13       1.0  0.49443  0.33745  0.40450  1.0000
  O   O14       1.0  0.49453  0.83748  0.40464  1.0000
  O   O15       1.0  0.99445  0.33761  0.40460  1.0000
  O   O16       1.0  0.99442  0.83763  0.40469  1.0000
  O   O17       1.0  0.00640  0.16311  0.59613  1.0000
  O   O18       1.0  0.00642  0.66312  0.59618  1.0000
  O   O19       1.0  0.50629  0.16321  0.59623  1.0000
  O   O20       1.0  0.50643  0.66297  0.59612  1.0000
  O   O21       1.0  0.25628  0.33762  0.59610  1.0000
  O   O22       1.0  0.25645  0.83750  0.59614  1.0000
  O   O23       1.0  0.75639  0.33755  0.59625  1.0000
  O   O24       1.0  0.75640  0.83765  0.59621  1.0000
  O   O25       1.0  0.25635  0.08749  0.90462  1.0000
  O   O26       1.0  0.25638  0.58761  0.90454  1.0000
  O   O27       1.0  0.75629  0.08771  0.90465  1.0000
  O   O28       1.0  0.75644  0.58762  0.90457  1.0000
  O   O29       1.0  0.00640  0.41304  0.90474  1.0000
  O   O30       1.0  0.00625  0.91298  0.90467  1.0000
  O   O31       1.0  0.50638  0.41315  0.90472  1.0000
  O   O32       1.0  0.50637  0.91307  0.90459  1.0000
