data_image0
_chemical_formula_structural       Ti24Ge24O72
_chemical_formula_sum              "Ti24 Ge24 O72"
_cell_length_a       13.5681
_cell_length_b       9.96795
_cell_length_c       13.2604
_cell_angle_alpha    89.9876
_cell_angle_beta     72.4849
_cell_angle_gamma    89.9648

_space_group_name_H-M_alt    "P 1"
_space_group_IT_number       1

loop_
  _space_group_symop_operation_xyz
  'x, y, z'

loop_
  _atom_site_type_symbol
  _atom_site_label
  _atom_site_symmetry_multiplicity
  _atom_site_fract_x
  _atom_site_fract_y
  _atom_site_fract_z
  _atom_site_occupancy
  Ti  Ti1       1.0  0.27329  0.75054  0.94358  1.0000
  Ti  Ti2       1.0  0.27325  0.25046  0.94362  1.0000
  Ti  Ti3       1.0  0.10658  0.50054  0.27693  1.0000
  Ti  Ti4       1.0  0.43990  0.50051  0.61029  1.0000
  Ti  Ti5       1.0  0.77326  0.50051  0.94362  1.0000
  Ti  Ti6       1.0  0.60659  0.75050  0.27699  1.0000
  Ti  Ti7       1.0  0.93992  0.75045  0.61029  1.0000
  Ti  Ti8       1.0  0.10659  0.00052  0.27698  1.0000
  Ti  Ti9       1.0  0.43986  0.00050  0.61025  1.0000
  Ti  Ti10      1.0  0.77328  0.00051  0.94354  1.0000
  Ti  Ti11      1.0  0.60659  0.25051  0.27691  1.0000
  Ti  Ti12      1.0  0.93987  0.25050  0.61029  1.0000
  Ti  Ti13      1.0  0.39406  0.75041  0.72385  1.0000
  Ti  Ti14      1.0  0.39403  0.25045  0.72386  1.0000
  Ti  Ti15      1.0  0.22736  0.50045  0.05715  1.0000
  Ti  Ti16      1.0  0.56069  0.50043  0.39051  1.0000
  Ti  Ti17      1.0  0.89404  0.50044  0.72386  1.0000
  Ti  Ti18      1.0  0.72736  0.75051  0.05721  1.0000
  Ti  Ti19      1.0  0.06072  0.75042  0.39055  1.0000
  Ti  Ti20      1.0  0.22741  0.00045  0.05721  1.0000
  Ti  Ti21      1.0  0.56073  0.00047  0.39052  1.0000
  Ti  Ti22      1.0  0.89410  0.00042  0.72381  1.0000
  Ti  Ti23      1.0  0.72739  0.25041  0.05718  1.0000
  Ti  Ti24      1.0  0.06072  0.25048  0.39053  1.0000
  Ge  Ge1       1.0  0.97032  0.75029  0.86855  1.0000
  Ge  Ge2       1.0  0.97037  0.25036  0.86848  1.0000
  Ge  Ge3       1.0  0.80368  0.50033  0.20182  1.0000
  Ge  Ge4       1.0  0.13701  0.50035  0.53518  1.0000
  Ge  Ge5       1.0  0.47037  0.50031  0.86849  1.0000
  Ge  Ge6       1.0  0.30368  0.75032  0.20182  1.0000
  Ge  Ge7       1.0  0.63700  0.75029  0.53519  1.0000
  Ge  Ge8       1.0  0.80373  0.00035  0.20182  1.0000
  Ge  Ge9       1.0  0.13705  0.00027  0.53517  1.0000
  Ge  Ge10      1.0  0.47037  0.00033  0.86849  1.0000
  Ge  Ge11      1.0  0.30369  0.25032  0.20184  1.0000
  Ge  Ge12      1.0  0.63697  0.25025  0.53520  1.0000
  Ge  Ge13      1.0  0.69694  0.75056  0.79879  1.0000
  Ge  Ge14      1.0  0.69693  0.25052  0.79881  1.0000
  Ge  Ge15      1.0  0.53034  0.50064  0.13209  1.0000
  Ge  Ge16      1.0  0.86360  0.50057  0.46548  1.0000
  Ge  Ge17      1.0  0.19696  0.50058  0.79883  1.0000
  Ge  Ge18      1.0  0.03029  0.75059  0.13214  1.0000
  Ge  Ge19      1.0  0.36358  0.75056  0.46550  1.0000
  Ge  Ge20      1.0  0.53029  0.00052  0.13217  1.0000
  Ge  Ge21      1.0  0.86360  0.00063  0.46552  1.0000
  Ge  Ge22      1.0  0.19693  0.00058  0.79881  1.0000
  Ge  Ge23      1.0  0.03025  0.25055  0.13217  1.0000
  Ge  Ge24      1.0  0.36359  0.25056  0.46549  1.0000
  O   O1        1.0  0.96124  0.83468  0.73866  1.0000
  O   O2        1.0  0.96138  0.33470  0.73856  1.0000
  O   O3        1.0  0.79459  0.58470  0.07197  1.0000
  O   O4        1.0  0.12800  0.58474  0.40527  1.0000
  O   O5        1.0  0.46134  0.58473  0.73859  1.0000
  O   O6        1.0  0.29471  0.83471  0.07191  1.0000
  O   O7        1.0  0.62800  0.83470  0.40527  1.0000
  O   O8        1.0  0.79468  0.08470  0.07192  1.0000
  O   O9        1.0  0.12798  0.08468  0.40531  1.0000
  O   O10       1.0  0.46129  0.08465  0.73862  1.0000
  O   O11       1.0  0.29466  0.33466  0.07193  1.0000
  O   O12       1.0  0.62793  0.33467  0.40530  1.0000
  O   O13       1.0  0.84831  0.83569  0.96461  1.0000
  O   O14       1.0  0.84830  0.33565  0.96457  1.0000
  O   O15       1.0  0.68161  0.58568  0.29797  1.0000
  O   O16       1.0  0.01496  0.58567  0.63130  1.0000
  O   O17       1.0  0.34829  0.58560  0.96454  1.0000
  O   O18       1.0  0.18159  0.83566  0.29793  1.0000
  O   O19       1.0  0.51494  0.83568  0.63125  1.0000
  O   O20       1.0  0.68164  0.08570  0.29799  1.0000
  O   O21       1.0  0.01498  0.08564  0.63130  1.0000
  O   O22       1.0  0.34829  0.08565  0.96459  1.0000
  O   O23       1.0  0.18163  0.33567  0.29796  1.0000
  O   O24       1.0  0.51497  0.33568  0.63131  1.0000
  O   O25       1.0  0.90449  0.58088  0.85228  1.0000
  O   O26       1.0  0.90445  0.08095  0.85227  1.0000
  O   O27       1.0  0.73782  0.33088  0.18562  1.0000
  O   O28       1.0  0.07113  0.33092  0.51899  1.0000
  O   O29       1.0  0.40449  0.33084  0.85234  1.0000
  O   O30       1.0  0.23778  0.58096  0.18559  1.0000
  O   O31       1.0  0.57108  0.58093  0.51898  1.0000
  O   O32       1.0  0.73781  0.83091  0.18566  1.0000
  O   O33       1.0  0.07116  0.83085  0.51898  1.0000
  O   O34       1.0  0.40452  0.83092  0.85228  1.0000
  O   O35       1.0  0.23780  0.08091  0.18565  1.0000
  O   O36       1.0  0.57111  0.08091  0.51897  1.0000
  O   O37       1.0  0.76276  0.92011  0.81520  1.0000
  O   O38       1.0  0.76280  0.42004  0.81519  1.0000
  O   O39       1.0  0.59614  0.67012  0.14857  1.0000
  O   O40       1.0  0.92944  0.67014  0.48186  1.0000
  O   O41       1.0  0.26278  0.67011  0.81520  1.0000
  O   O42       1.0  0.09615  0.92007  0.14854  1.0000
  O   O43       1.0  0.42946  0.92006  0.48185  1.0000
  O   O44       1.0  0.59613  0.17003  0.14856  1.0000
  O   O45       1.0  0.92943  0.17010  0.48188  1.0000
  O   O46       1.0  0.26276  0.17011  0.81521  1.0000
  O   O47       1.0  0.09611  0.42003  0.14854  1.0000
  O   O48       1.0  0.42940  0.42009  0.48192  1.0000
  O   O49       1.0  0.81899  0.66533  0.70289  1.0000
  O   O50       1.0  0.81904  0.16535  0.70293  1.0000
  O   O51       1.0  0.65236  0.41536  0.03624  1.0000
  O   O52       1.0  0.98572  0.41541  0.36963  1.0000
  O   O53       1.0  0.31904  0.41540  0.70299  1.0000
  O   O54       1.0  0.15235  0.66537  0.03619  1.0000
  O   O55       1.0  0.48567  0.66537  0.36958  1.0000
  O   O56       1.0  0.65233  0.91537  0.03630  1.0000
  O   O57       1.0  0.98568  0.91541  0.36966  1.0000
  O   O58       1.0  0.31899  0.91534  0.70291  1.0000
  O   O59       1.0  0.15233  0.16531  0.03624  1.0000
  O   O60       1.0  0.48570  0.16536  0.36956  1.0000
  O   O61       1.0  0.70606  0.66635  0.92882  1.0000
  O   O62       1.0  0.70592  0.16630  0.92891  1.0000
  O   O63       1.0  0.53932  0.41630  0.26218  1.0000
  O   O64       1.0  0.87260  0.41632  0.59556  1.0000
  O   O65       1.0  0.20593  0.41628  0.92888  1.0000
  O   O66       1.0  0.03928  0.66632  0.26224  1.0000
  O   O67       1.0  0.37261  0.66629  0.59559  1.0000
  O   O68       1.0  0.53930  0.91632  0.26224  1.0000
  O   O69       1.0  0.87263  0.91632  0.59556  1.0000
  O   O70       1.0  0.20600  0.91634  0.92887  1.0000
  O   O71       1.0  0.03927  0.16632  0.26224  1.0000
  O   O72       1.0  0.37267  0.16634  0.59553  1.0000
