data_image0
_chemical_formula_structural       Al8Si32O80
_chemical_formula_sum              "Al8 Si32 O80"
_cell_length_a       12.4261
_cell_length_b       13.8769
_cell_length_c       10.0327
_cell_angle_alpha    91.7009
_cell_angle_beta     90.0054
_cell_angle_gamma    90.0065

_space_group_name_H-M_alt    "P 1"
_space_group_IT_number       1

loop_
  _space_group_symop_operation_xyz
  'x, y, z'

loop_
  _atom_site_type_symbol
  _atom_site_label
  _atom_site_symmetry_multiplicity
  _atom_site_fract_x
  _atom_site_fract_y
  _atom_site_fract_z
  _atom_site_occupancy
  Al  Al1       1.0  0.99207  0.50030  0.00037  1.0000
  Al  Al2       1.0  0.99213  0.50031  0.50042  1.0000
  Al  Al3       1.0  0.49210  0.50030  0.00040  1.0000
  Al  Al4       1.0  0.49213  0.50029  0.50048  1.0000
  Al  Al5       1.0  0.24216  0.00030  0.00047  1.0000
  Al  Al6       1.0  0.24211  0.00033  0.50038  1.0000
  Al  Al7       1.0  0.74212  0.00027  0.00041  1.0000
  Al  Al8       1.0  0.74210  0.00029  0.50043  1.0000
  Si  Si1       1.0  0.17270  0.35187  0.38275  1.0000
  Si  Si2       1.0  0.17270  0.35192  0.88275  1.0000
  Si  Si3       1.0  0.67268  0.35191  0.38268  1.0000
  Si  Si4       1.0  0.67268  0.35189  0.88274  1.0000
  Si  Si5       1.0  0.42270  0.85191  0.38273  1.0000
  Si  Si6       1.0  0.42272  0.85189  0.88280  1.0000
  Si  Si7       1.0  0.92269  0.85191  0.38268  1.0000
  Si  Si8       1.0  0.92267  0.85188  0.88264  1.0000
  Si  Si9       1.0  0.07155  0.14566  0.36037  1.0000
  Si  Si10      1.0  0.07160  0.14569  0.86040  1.0000
  Si  Si11      1.0  0.57155  0.14570  0.36045  1.0000
  Si  Si12      1.0  0.57159  0.14564  0.86039  1.0000
  Si  Si13      1.0  0.32158  0.64567  0.36040  1.0000
  Si  Si14      1.0  0.32157  0.64569  0.86037  1.0000
  Si  Si15      1.0  0.82160  0.64568  0.36036  1.0000
  Si  Si16      1.0  0.82156  0.64568  0.86037  1.0000
  Si  Si17      1.0  0.07154  0.85500  0.14060  1.0000
  Si  Si18      1.0  0.07155  0.85503  0.64056  1.0000
  Si  Si19      1.0  0.57159  0.85500  0.14064  1.0000
  Si  Si20      1.0  0.57155  0.85499  0.64065  1.0000
  Si  Si21      1.0  0.32157  0.35499  0.14061  1.0000
  Si  Si22      1.0  0.32157  0.35505  0.64067  1.0000
  Si  Si23      1.0  0.82158  0.35500  0.14060  1.0000
  Si  Si24      1.0  0.82154  0.35501  0.64059  1.0000
  Si  Si25      1.0  0.17266  0.64879  0.11826  1.0000
  Si  Si26      1.0  0.17264  0.64880  0.61827  1.0000
  Si  Si27      1.0  0.67269  0.64875  0.11824  1.0000
  Si  Si28      1.0  0.67270  0.64879  0.61824  1.0000
  Si  Si29      1.0  0.42271  0.14879  0.11830  1.0000
  Si  Si30      1.0  0.42261  0.14881  0.61833  1.0000
  Si  Si31      1.0  0.92266  0.14878  0.11825  1.0000
  Si  Si32      1.0  0.92269  0.14879  0.61827  1.0000
  O   O1        1.0  0.12842  0.24780  0.32965  1.0000
  O   O2        1.0  0.12843  0.24783  0.82967  1.0000
  O   O3        1.0  0.62840  0.24782  0.32960  1.0000
  O   O4        1.0  0.62839  0.24781  0.82961  1.0000
  O   O5        1.0  0.37846  0.74782  0.32970  1.0000
  O   O6        1.0  0.37843  0.74784  0.82964  1.0000
  O   O7        1.0  0.87842  0.74785  0.32956  1.0000
  O   O8        1.0  0.87837  0.74783  0.82960  1.0000
  O   O9        1.0  0.12826  0.75280  0.17136  1.0000
  O   O10       1.0  0.12829  0.75284  0.67133  1.0000
  O   O11       1.0  0.62835  0.75280  0.17131  1.0000
  O   O12       1.0  0.62836  0.75283  0.67129  1.0000
  O   O13       1.0  0.37833  0.25281  0.17136  1.0000
  O   O14       1.0  0.37828  0.25285  0.67140  1.0000
  O   O15       1.0  0.87833  0.25282  0.17134  1.0000
  O   O16       1.0  0.87834  0.25283  0.67131  1.0000
  O   O17       1.0  0.00736  0.88975  0.27359  1.0000
  O   O18       1.0  0.00735  0.88972  0.77356  1.0000
  O   O19       1.0  0.50745  0.88969  0.27370  1.0000
  O   O20       1.0  0.50746  0.88967  0.77376  1.0000
  O   O21       1.0  0.25737  0.38965  0.27364  1.0000
  O   O22       1.0  0.25738  0.38971  0.77366  1.0000
  O   O23       1.0  0.75738  0.38969  0.27361  1.0000
  O   O24       1.0  0.75740  0.38969  0.77367  1.0000
  O   O25       1.0  0.98553  0.16404  0.47946  1.0000
  O   O26       1.0  0.98556  0.16405  0.97947  1.0000
  O   O27       1.0  0.48564  0.16408  0.47965  1.0000
  O   O28       1.0  0.48560  0.16406  0.97954  1.0000
  O   O29       1.0  0.23555  0.66403  0.47951  1.0000
  O   O30       1.0  0.23556  0.66410  0.97949  1.0000
  O   O31       1.0  0.73562  0.66411  0.47951  1.0000
  O   O32       1.0  0.73559  0.66405  0.97952  1.0000
  O   O33       1.0  0.07599  0.42592  0.40541  1.0000
  O   O34       1.0  0.07597  0.42593  0.90533  1.0000
  O   O35       1.0  0.57599  0.42598  0.40528  1.0000
  O   O36       1.0  0.57599  0.42598  0.90530  1.0000
  O   O37       1.0  0.32599  0.92598  0.40527  1.0000
  O   O38       1.0  0.32598  0.92593  0.90538  1.0000
  O   O39       1.0  0.82593  0.92593  0.40530  1.0000
  O   O40       1.0  0.82593  0.92590  0.90529  1.0000
  O   O41       1.0  0.90941  0.56880  0.40222  1.0000
  O   O42       1.0  0.90934  0.56880  0.90221  1.0000
  O   O43       1.0  0.40937  0.56878  0.40230  1.0000
  O   O44       1.0  0.40936  0.56878  0.90221  1.0000
  O   O45       1.0  0.15937  0.06878  0.40223  1.0000
  O   O46       1.0  0.15941  0.06880  0.90227  1.0000
  O   O47       1.0  0.65933  0.06877  0.40231  1.0000
  O   O48       1.0  0.65939  0.06873  0.90221  1.0000
  O   O49       1.0  0.98553  0.83671  0.02147  1.0000
  O   O50       1.0  0.98551  0.83668  0.52148  1.0000
  O   O51       1.0  0.48543  0.83667  0.02166  1.0000
  O   O52       1.0  0.48549  0.83670  0.52158  1.0000
  O   O53       1.0  0.23548  0.33668  0.02158  1.0000
  O   O54       1.0  0.23554  0.33668  0.52155  1.0000
  O   O55       1.0  0.73549  0.33667  0.02155  1.0000
  O   O56       1.0  0.73546  0.33671  0.52153  1.0000
  O   O57       1.0  0.00734  0.11103  0.22737  1.0000
  O   O58       1.0  0.00735  0.11106  0.72742  1.0000
  O   O59       1.0  0.50729  0.11101  0.22749  1.0000
  O   O60       1.0  0.50724  0.11102  0.72748  1.0000
  O   O61       1.0  0.25731  0.61106  0.22742  1.0000
  O   O62       1.0  0.25727  0.61102  0.72741  1.0000
  O   O63       1.0  0.75734  0.61100  0.22738  1.0000
  O   O64       1.0  0.75728  0.61102  0.72742  1.0000
  O   O65       1.0  0.90943  0.43184  0.09872  1.0000
  O   O66       1.0  0.90942  0.43186  0.59873  1.0000
  O   O67       1.0  0.40941  0.43185  0.09873  1.0000
  O   O68       1.0  0.40943  0.43189  0.59881  1.0000
  O   O69       1.0  0.15943  0.93186  0.09874  1.0000
  O   O70       1.0  0.15941  0.93184  0.59856  1.0000
  O   O71       1.0  0.65943  0.93186  0.09874  1.0000
  O   O72       1.0  0.65939  0.93188  0.59876  1.0000
  O   O73       1.0  0.07601  0.57470  0.09539  1.0000
  O   O74       1.0  0.07600  0.57468  0.59548  1.0000
  O   O75       1.0  0.57606  0.57465  0.09540  1.0000
  O   O76       1.0  0.57610  0.57466  0.59538  1.0000
  O   O77       1.0  0.32606  0.07467  0.09549  1.0000
  O   O78       1.0  0.32595  0.07473  0.59546  1.0000
  O   O79       1.0  0.82599  0.07468  0.09544  1.0000
  O   O80       1.0  0.82604  0.07466  0.59549  1.0000
