data_image0
_chemical_formula_structural       Ca16Y32O64
_chemical_formula_sum              "Ca16 Y32 O64"
_cell_length_a       13.198
_cell_length_b       10.9953
_cell_length_c       10.8825
_cell_angle_alpha    89.9999
_cell_angle_beta     89.999
_cell_angle_gamma    89.997

_space_group_name_H-M_alt    "P 1"
_space_group_IT_number       1

loop_
  _space_group_symop_operation_xyz
  'x, y, z'

loop_
  _atom_site_type_symbol
  _atom_site_label
  _atom_site_symmetry_multiplicity
  _atom_site_fract_x
  _atom_site_fract_y
  _atom_site_fract_z
  _atom_site_occupancy
  Ca  Ca1       1.0  0.12533  0.61318  0.25069  1.0000
  Ca  Ca2       1.0  0.25034  0.11324  0.25059  1.0000
  Ca  Ca3       1.0  0.37532  0.61312  0.25029  1.0000
  Ca  Ca4       1.0  0.50036  0.11306  0.25040  1.0000
  Ca  Ca5       1.0  0.62538  0.61301  0.25032  1.0000
  Ca  Ca6       1.0  0.75037  0.11302  0.25053  1.0000
  Ca  Ca7       1.0  0.87534  0.61308  0.25048  1.0000
  Ca  Ca8       1.0  0.00033  0.11306  0.25035  1.0000
  Ca  Ca9       1.0  0.12542  0.38786  0.75062  1.0000
  Ca  Ca10      1.0  0.25039  0.88791  0.75059  1.0000
  Ca  Ca11      1.0  0.37543  0.38784  0.75042  1.0000
  Ca  Ca12      1.0  0.50039  0.88781  0.75032  1.0000
  Ca  Ca13      1.0  0.62541  0.38775  0.75051  1.0000
  Ca  Ca14      1.0  0.75040  0.88776  0.75033  1.0000
  Ca  Ca15      1.0  0.87544  0.38779  0.75032  1.0000
  Ca  Ca16      1.0  0.00041  0.88784  0.75060  1.0000
  Y   Y1        1.0  0.12540  0.86831  0.42604  1.0000
  Y   Y2        1.0  0.25036  0.36830  0.42611  1.0000
  Y   Y3        1.0  0.37538  0.86822  0.42600  1.0000
  Y   Y4        1.0  0.50035  0.36819  0.42600  1.0000
  Y   Y5        1.0  0.62538  0.86813  0.42596  1.0000
  Y   Y6        1.0  0.75036  0.36815  0.42605  1.0000
  Y   Y7        1.0  0.87539  0.86813  0.42609  1.0000
  Y   Y8        1.0  0.00036  0.36823  0.42599  1.0000
  Y   Y9        1.0  0.12528  0.13276  0.57492  1.0000
  Y   Y10       1.0  0.25043  0.63278  0.57494  1.0000
  Y   Y11       1.0  0.37530  0.13270  0.57485  1.0000
  Y   Y12       1.0  0.50040  0.63264  0.57481  1.0000
  Y   Y13       1.0  0.62531  0.13265  0.57486  1.0000
  Y   Y14       1.0  0.75040  0.63259  0.57489  1.0000
  Y   Y15       1.0  0.87531  0.13264  0.57484  1.0000
  Y   Y16       1.0  0.00044  0.63273  0.57496  1.0000
  Y   Y17       1.0  0.12539  0.86827  0.07491  1.0000
  Y   Y18       1.0  0.25040  0.36826  0.07490  1.0000
  Y   Y19       1.0  0.37535  0.86825  0.07484  1.0000
  Y   Y20       1.0  0.50039  0.36822  0.07488  1.0000
  Y   Y21       1.0  0.62540  0.86820  0.07483  1.0000
  Y   Y22       1.0  0.75038  0.36810  0.07491  1.0000
  Y   Y23       1.0  0.87536  0.86820  0.07492  1.0000
  Y   Y24       1.0  0.00035  0.36821  0.07489  1.0000
  Y   Y25       1.0  0.12538  0.13274  0.92609  1.0000
  Y   Y26       1.0  0.25036  0.63269  0.92601  1.0000
  Y   Y27       1.0  0.37539  0.13271  0.92600  1.0000
  Y   Y28       1.0  0.50040  0.63276  0.92602  1.0000
  Y   Y29       1.0  0.62536  0.13265  0.92601  1.0000
  Y   Y30       1.0  0.75042  0.63265  0.92605  1.0000
  Y   Y31       1.0  0.87538  0.13269  0.92592  1.0000
  Y   Y32       1.0  0.00039  0.63269  0.92610  1.0000
  O   O1        1.0  0.00038  0.00048  0.00043  1.0000
  O   O2        1.0  0.12537  0.50032  0.00026  1.0000
  O   O3        1.0  0.25041  0.00044  0.00030  1.0000
  O   O4        1.0  0.37539  0.50055  0.00057  1.0000
  O   O5        1.0  0.50037  0.00043  0.00045  1.0000
  O   O6        1.0  0.62542  0.50047  0.00055  1.0000
  O   O7        1.0  0.75037  0.00045  0.00044  1.0000
  O   O8        1.0  0.87537  0.50047  0.00060  1.0000
  O   O9        1.0  0.00035  0.00041  0.50054  1.0000
  O   O10       1.0  0.12536  0.50055  0.50042  1.0000
  O   O11       1.0  0.25033  0.00053  0.50046  1.0000
  O   O12       1.0  0.37539  0.50045  0.50051  1.0000
  O   O13       1.0  0.50034  0.00039  0.50041  1.0000
  O   O14       1.0  0.62540  0.50037  0.50047  1.0000
  O   O15       1.0  0.75034  0.00036  0.50048  1.0000
  O   O16       1.0  0.87542  0.50043  0.50050  1.0000
  O   O17       1.0  0.12544  0.76789  0.61377  1.0000
  O   O18       1.0  0.25031  0.26787  0.61373  1.0000
  O   O19       1.0  0.37543  0.76787  0.61368  1.0000
  O   O20       1.0  0.50034  0.26785  0.61366  1.0000
  O   O21       1.0  0.62538  0.76776  0.61363  1.0000
  O   O22       1.0  0.75036  0.26777  0.61366  1.0000
  O   O23       1.0  0.87539  0.76778  0.61374  1.0000
  O   O24       1.0  0.00028  0.26787  0.61366  1.0000
  O   O25       1.0  0.12540  0.96705  0.25044  1.0000
  O   O26       1.0  0.25031  0.46700  0.25049  1.0000
  O   O27       1.0  0.37529  0.96702  0.25042  1.0000
  O   O28       1.0  0.50036  0.46695  0.25046  1.0000
  O   O29       1.0  0.62535  0.96694  0.25043  1.0000
  O   O30       1.0  0.75037  0.46688  0.25048  1.0000
  O   O31       1.0  0.87537  0.96692  0.25052  1.0000
  O   O32       1.0  0.00036  0.46702  0.25044  1.0000
  O   O33       1.0  0.12537  0.03402  0.75052  1.0000
  O   O34       1.0  0.25045  0.53395  0.75045  1.0000
  O   O35       1.0  0.37543  0.03398  0.75042  1.0000
  O   O36       1.0  0.50041  0.53395  0.75048  1.0000
  O   O37       1.0  0.62540  0.03391  0.75043  1.0000
  O   O38       1.0  0.75044  0.53387  0.75050  1.0000
  O   O39       1.0  0.87536  0.03389  0.75040  1.0000
  O   O40       1.0  0.00040  0.53397  0.75050  1.0000
  O   O41       1.0  0.12538  0.23313  0.38725  1.0000
  O   O42       1.0  0.25039  0.73310  0.38718  1.0000
  O   O43       1.0  0.37532  0.23307  0.38719  1.0000
  O   O44       1.0  0.50035  0.73303  0.38715  1.0000
  O   O45       1.0  0.62538  0.23299  0.38720  1.0000
  O   O46       1.0  0.75040  0.73297  0.38719  1.0000
  O   O47       1.0  0.87537  0.23300  0.38714  1.0000
  O   O48       1.0  0.00044  0.73309  0.38726  1.0000
  O   O49       1.0  0.12536  0.76787  0.88722  1.0000
  O   O50       1.0  0.25038  0.26787  0.88722  1.0000
  O   O51       1.0  0.37537  0.76785  0.88717  1.0000
  O   O52       1.0  0.50042  0.26786  0.88717  1.0000
  O   O53       1.0  0.62542  0.76783  0.88714  1.0000
  O   O54       1.0  0.75033  0.26780  0.88718  1.0000
  O   O55       1.0  0.87542  0.76784  0.88728  1.0000
  O   O56       1.0  0.00036  0.26786  0.88717  1.0000
  O   O57       1.0  0.12539  0.23310  0.11371  1.0000
  O   O58       1.0  0.25036  0.73308  0.11370  1.0000
  O   O59       1.0  0.37540  0.23307  0.11367  1.0000
  O   O60       1.0  0.50037  0.73310  0.11365  1.0000
  O   O61       1.0  0.62537  0.23298  0.11371  1.0000
  O   O62       1.0  0.75039  0.73303  0.11372  1.0000
  O   O63       1.0  0.87541  0.23297  0.11368  1.0000
  O   O64       1.0  0.00040  0.73313  0.11375  1.0000
