data_image0
_chemical_formula_structural       Cs32Sr32O48
_chemical_formula_sum              "Cs32 Sr32 O48"
_cell_length_a       14.8535
_cell_length_b       14.274
_cell_length_c       13.3107
_cell_angle_alpha    92.3348
_cell_angle_beta     89.9983
_cell_angle_gamma    89.9981

_space_group_name_H-M_alt    "P 1"
_space_group_IT_number       1

loop_
  _space_group_symop_operation_xyz
  'x, y, z'

loop_
  _atom_site_type_symbol
  _atom_site_label
  _atom_site_symmetry_multiplicity
  _atom_site_fract_x
  _atom_site_fract_y
  _atom_site_fract_z
  _atom_site_occupancy
  Cs  Cs1       1.0  0.17708  0.64236  0.46164  1.0000
  Cs  Cs2       1.0  0.17700  0.89241  0.96164  1.0000
  Cs  Cs3       1.0  0.17718  0.14240  0.46183  1.0000
  Cs  Cs4       1.0  0.17704  0.39243  0.96169  1.0000
  Cs  Cs5       1.0  0.67714  0.64252  0.46159  1.0000
  Cs  Cs6       1.0  0.67693  0.89243  0.96163  1.0000
  Cs  Cs7       1.0  0.67709  0.14242  0.46178  1.0000
  Cs  Cs8       1.0  0.67717  0.39231  0.96166  1.0000
  Cs  Cs9       1.0  0.07364  0.51750  0.21175  1.0000
  Cs  Cs10      1.0  0.07363  0.76748  0.71164  1.0000
  Cs  Cs11      1.0  0.07351  0.01745  0.21179  1.0000
  Cs  Cs12      1.0  0.07365  0.26735  0.71159  1.0000
  Cs  Cs13      1.0  0.57363  0.51745  0.21161  1.0000
  Cs  Cs14      1.0  0.57371  0.76746  0.71171  1.0000
  Cs  Cs15      1.0  0.57363  0.01734  0.21167  1.0000
  Cs  Cs16      1.0  0.57355  0.26743  0.71164  1.0000
  Cs  Cs17      1.0  0.42704  0.23311  0.28901  1.0000
  Cs  Cs18      1.0  0.42712  0.48314  0.78897  1.0000
  Cs  Cs19      1.0  0.42712  0.73320  0.28901  1.0000
  Cs  Cs20      1.0  0.42720  0.98313  0.78889  1.0000
  Cs  Cs21      1.0  0.92708  0.23328  0.28902  1.0000
  Cs  Cs22      1.0  0.92706  0.48316  0.78903  1.0000
  Cs  Cs23      1.0  0.92705  0.73332  0.28900  1.0000
  Cs  Cs24      1.0  0.92714  0.98324  0.78900  1.0000
  Cs  Cs25      1.0  0.32344  0.10824  0.03898  1.0000
  Cs  Cs26      1.0  0.32358  0.35825  0.53895  1.0000
  Cs  Cs27      1.0  0.32357  0.60826  0.03898  1.0000
  Cs  Cs28      1.0  0.32351  0.85825  0.53899  1.0000
  Cs  Cs29      1.0  0.82355  0.10827  0.03895  1.0000
  Cs  Cs30      1.0  0.82361  0.35816  0.53906  1.0000
  Cs  Cs31      1.0  0.82364  0.60822  0.03902  1.0000
  Cs  Cs32      1.0  0.82355  0.85823  0.53905  1.0000
  Sr  Sr1       1.0  0.31055  0.47582  0.28541  1.0000
  Sr  Sr2       1.0  0.31054  0.72571  0.78533  1.0000
  Sr  Sr3       1.0  0.31048  0.97575  0.28540  1.0000
  Sr  Sr4       1.0  0.31054  0.22575  0.78542  1.0000
  Sr  Sr5       1.0  0.81056  0.47577  0.28539  1.0000
  Sr  Sr6       1.0  0.81057  0.72578  0.78539  1.0000
  Sr  Sr7       1.0  0.81050  0.97578  0.28545  1.0000
  Sr  Sr8       1.0  0.81051  0.22579  0.78539  1.0000
  Sr  Sr9       1.0  0.06053  0.39990  0.46533  1.0000
  Sr  Sr10      1.0  0.06056  0.64988  0.96539  1.0000
  Sr  Sr11      1.0  0.06054  0.89989  0.46538  1.0000
  Sr  Sr12      1.0  0.06050  0.14991  0.96538  1.0000
  Sr  Sr13      1.0  0.56053  0.39988  0.46527  1.0000
  Sr  Sr14      1.0  0.56047  0.64987  0.96520  1.0000
  Sr  Sr15      1.0  0.56048  0.89987  0.46529  1.0000
  Sr  Sr16      1.0  0.56050  0.14994  0.96531  1.0000
  Sr  Sr17      1.0  0.44021  0.35080  0.03541  1.0000
  Sr  Sr18      1.0  0.44018  0.60076  0.53539  1.0000
  Sr  Sr19      1.0  0.44025  0.85081  0.03543  1.0000
  Sr  Sr20      1.0  0.44018  0.10074  0.53533  1.0000
  Sr  Sr21      1.0  0.94017  0.35080  0.03536  1.0000
  Sr  Sr22      1.0  0.94022  0.60078  0.53540  1.0000
  Sr  Sr23      1.0  0.94013  0.85074  0.03542  1.0000
  Sr  Sr24      1.0  0.94021  0.10080  0.53542  1.0000
  Sr  Sr25      1.0  0.19021  0.27494  0.21534  1.0000
  Sr  Sr26      1.0  0.19018  0.52486  0.71530  1.0000
  Sr  Sr27      1.0  0.19018  0.77496  0.21530  1.0000
  Sr  Sr28      1.0  0.19023  0.02489  0.71527  1.0000
  Sr  Sr29      1.0  0.69015  0.27494  0.21530  1.0000
  Sr  Sr30      1.0  0.69016  0.52492  0.71536  1.0000
  Sr  Sr31      1.0  0.69017  0.77491  0.21522  1.0000
  Sr  Sr32      1.0  0.69022  0.02495  0.71533  1.0000
  O   O1        1.0  0.25030  0.12530  0.25022  1.0000
  O   O2        1.0  0.25031  0.37524  0.75035  1.0000
  O   O3        1.0  0.25035  0.62541  0.25035  1.0000
  O   O4        1.0  0.25035  0.87529  0.75032  1.0000
  O   O5        1.0  0.75026  0.12529  0.25039  1.0000
  O   O6        1.0  0.75041  0.37537  0.75034  1.0000
  O   O7        1.0  0.75038  0.62536  0.25020  1.0000
  O   O8        1.0  0.75041  0.87537  0.75038  1.0000
  O   O9        1.0  0.00026  0.00034  0.00042  1.0000
  O   O10       1.0  0.00039  0.25033  0.50030  1.0000
  O   O11       1.0  0.00036  0.50035  0.00030  1.0000
  O   O12       1.0  0.00038  0.75031  0.50033  1.0000
  O   O13       1.0  0.50033  0.00038  0.00035  1.0000
  O   O14       1.0  0.50031  0.25031  0.50031  1.0000
  O   O15       1.0  0.50030  0.50036  0.00038  1.0000
  O   O16       1.0  0.50030  0.75033  0.50036  1.0000
  O   O17       1.0  0.44447  0.49268  0.38744  1.0000
  O   O18       1.0  0.44454  0.74265  0.88728  1.0000
  O   O19       1.0  0.44441  0.99265  0.38740  1.0000
  O   O20       1.0  0.44449  0.24281  0.88740  1.0000
  O   O21       1.0  0.94453  0.49265  0.38744  1.0000
  O   O22       1.0  0.94448  0.74262  0.88751  1.0000
  O   O23       1.0  0.94441  0.99255  0.38758  1.0000
  O   O24       1.0  0.94450  0.24278  0.88735  1.0000
  O   O25       1.0  0.19447  0.38307  0.36332  1.0000
  O   O26       1.0  0.19443  0.63300  0.86324  1.0000
  O   O27       1.0  0.19442  0.88302  0.36328  1.0000
  O   O28       1.0  0.19440  0.13300  0.86326  1.0000
  O   O29       1.0  0.69447  0.38302  0.36324  1.0000
  O   O30       1.0  0.69445  0.63304  0.86327  1.0000
  O   O31       1.0  0.69445  0.88295  0.36330  1.0000
  O   O32       1.0  0.69441  0.13309  0.86327  1.0000
  O   O33       1.0  0.30625  0.36768  0.13742  1.0000
  O   O34       1.0  0.30624  0.61757  0.63738  1.0000
  O   O35       1.0  0.30629  0.86773  0.13740  1.0000
  O   O36       1.0  0.30629  0.11760  0.63741  1.0000
  O   O37       1.0  0.80626  0.36770  0.13740  1.0000
  O   O38       1.0  0.80623  0.61775  0.63740  1.0000
  O   O39       1.0  0.80619  0.86770  0.13742  1.0000
  O   O40       1.0  0.80630  0.11774  0.63746  1.0000
  O   O41       1.0  0.05628  0.25802  0.11332  1.0000
  O   O42       1.0  0.05629  0.50800  0.61326  1.0000
  O   O43       1.0  0.05622  0.75799  0.11334  1.0000
  O   O44       1.0  0.05627  0.00802  0.61329  1.0000
  O   O45       1.0  0.55623  0.25798  0.11327  1.0000
  O   O46       1.0  0.55622  0.50794  0.61331  1.0000
  O   O47       1.0  0.55622  0.75805  0.11322  1.0000
  O   O48       1.0  0.55630  0.00807  0.61322  1.0000
