data_image0
_chemical_formula_structural       Nb24Ga24O96
_chemical_formula_sum              "Nb24 Ga24 O96"
_cell_length_a       11.4625
_cell_length_b       12.5424
_cell_length_c       13.315
_cell_angle_alpha    107.899
_cell_angle_beta     90
_cell_angle_gamma    90

_space_group_name_H-M_alt    "P 1"
_space_group_IT_number       1

loop_
  _space_group_symop_operation_xyz
  'x, y, z'

loop_
  _atom_site_type_symbol
  _atom_site_label
  _atom_site_symmetry_multiplicity
  _atom_site_fract_x
  _atom_site_fract_y
  _atom_site_fract_z
  _atom_site_occupancy
  Nb  Nb1       1.0  0.99986  0.10434  0.11704  1.0000
  Nb  Nb2       1.0  0.99981  0.10433  0.61702  1.0000
  Nb  Nb3       1.0  0.33318  0.10431  0.11691  1.0000
  Nb  Nb4       1.0  0.33315  0.10427  0.61691  1.0000
  Nb  Nb5       1.0  0.16645  0.60426  0.11700  1.0000
  Nb  Nb6       1.0  0.16640  0.60429  0.61699  1.0000
  Nb  Nb7       1.0  0.66653  0.10416  0.11685  1.0000
  Nb  Nb8       1.0  0.66648  0.10416  0.61690  1.0000
  Nb  Nb9       1.0  0.49976  0.60428  0.11701  1.0000
  Nb  Nb10      1.0  0.49976  0.60422  0.61704  1.0000
  Nb  Nb11      1.0  0.83314  0.60426  0.11695  1.0000
  Nb  Nb12      1.0  0.83314  0.60418  0.61694  1.0000
  Nb  Nb13      1.0  0.16651  0.39693  0.38392  1.0000
  Nb  Nb14      1.0  0.16650  0.39686  0.88387  1.0000
  Nb  Nb15      1.0  0.49983  0.39687  0.38389  1.0000
  Nb  Nb16      1.0  0.49984  0.39682  0.88388  1.0000
  Nb  Nb17      1.0  0.33314  0.89685  0.38386  1.0000
  Nb  Nb18      1.0  0.33314  0.89687  0.88390  1.0000
  Nb  Nb19      1.0  0.83314  0.39676  0.38381  1.0000
  Nb  Nb20      1.0  0.83313  0.39683  0.88390  1.0000
  Nb  Nb21      1.0  0.66648  0.89678  0.38383  1.0000
  Nb  Nb22      1.0  0.66646  0.89680  0.88377  1.0000
  Nb  Nb23      1.0  0.99979  0.89684  0.38388  1.0000
  Nb  Nb24      1.0  0.99986  0.89688  0.88392  1.0000
  Ga  Ga1       1.0  0.99986  0.19887  0.40930  1.0000
  Ga  Ga2       1.0  0.99992  0.19885  0.90931  1.0000
  Ga  Ga3       1.0  0.33309  0.19882  0.40911  1.0000
  Ga  Ga4       1.0  0.33308  0.19880  0.90914  1.0000
  Ga  Ga5       1.0  0.16649  0.69882  0.40920  1.0000
  Ga  Ga6       1.0  0.16656  0.69878  0.90918  1.0000
  Ga  Ga7       1.0  0.66657  0.19874  0.40905  1.0000
  Ga  Ga8       1.0  0.66658  0.19873  0.90912  1.0000
  Ga  Ga9       1.0  0.49981  0.69884  0.40931  1.0000
  Ga  Ga10      1.0  0.49982  0.69883  0.90931  1.0000
  Ga  Ga11      1.0  0.83299  0.69873  0.40918  1.0000
  Ga  Ga12      1.0  0.83302  0.69881  0.90918  1.0000
  Ga  Ga13      1.0  0.16667  0.30223  0.09160  1.0000
  Ga  Ga14      1.0  0.16661  0.30218  0.59152  1.0000
  Ga  Ga15      1.0  0.49990  0.30223  0.09154  1.0000
  Ga  Ga16      1.0  0.49989  0.30219  0.59146  1.0000
  Ga  Ga17      1.0  0.33293  0.80227  0.09155  1.0000
  Ga  Ga18      1.0  0.33293  0.80223  0.59157  1.0000
  Ga  Ga19      1.0  0.83306  0.30215  0.09147  1.0000
  Ga  Ga20      1.0  0.83295  0.30214  0.59157  1.0000
  Ga  Ga21      1.0  0.66652  0.80214  0.09154  1.0000
  Ga  Ga22      1.0  0.66646  0.80207  0.59150  1.0000
  Ga  Ga23      1.0  0.99982  0.80226  0.09148  1.0000
  Ga  Ga24      1.0  0.99974  0.80224  0.59152  1.0000
  O   O1        1.0  0.16661  0.36272  0.24105  1.0000
  O   O2        1.0  0.16658  0.36264  0.74100  1.0000
  O   O3        1.0  0.49977  0.36293  0.24104  1.0000
  O   O4        1.0  0.49993  0.36285  0.74102  1.0000
  O   O5        1.0  0.33303  0.86286  0.24099  1.0000
  O   O6        1.0  0.33304  0.86272  0.74102  1.0000
  O   O7        1.0  0.83321  0.36270  0.24095  1.0000
  O   O8        1.0  0.83298  0.36257  0.74103  1.0000
  O   O9        1.0  0.66655  0.86261  0.24095  1.0000
  O   O10       1.0  0.66627  0.86282  0.74093  1.0000
  O   O11       1.0  0.99987  0.86270  0.24100  1.0000
  O   O12       1.0  0.00000  0.86273  0.74104  1.0000
  O   O13       1.0  0.99980  0.13843  0.25991  1.0000
  O   O14       1.0  0.99980  0.13829  0.75988  1.0000
  O   O15       1.0  0.33306  0.13848  0.25977  1.0000
  O   O16       1.0  0.33313  0.13830  0.75976  1.0000
  O   O17       1.0  0.16658  0.63828  0.25985  1.0000
  O   O18       1.0  0.16624  0.63850  0.75985  1.0000
  O   O19       1.0  0.66664  0.13830  0.25971  1.0000
  O   O20       1.0  0.66647  0.13820  0.75977  1.0000
  O   O21       1.0  0.49991  0.63851  0.25989  1.0000
  O   O22       1.0  0.49977  0.63819  0.75990  1.0000
  O   O23       1.0  0.83305  0.63836  0.25981  1.0000
  O   O24       1.0  0.83338  0.63850  0.75982  1.0000
  O   O25       1.0  0.16641  0.44550  0.06749  1.0000
  O   O26       1.0  0.16656  0.44551  0.56752  1.0000
  O   O27       1.0  0.49981  0.44548  0.06751  1.0000
  O   O28       1.0  0.49998  0.44543  0.56743  1.0000
  O   O29       1.0  0.33313  0.94553  0.06744  1.0000
  O   O30       1.0  0.33298  0.94549  0.56743  1.0000
  O   O31       1.0  0.83326  0.44546  0.06743  1.0000
  O   O32       1.0  0.83301  0.44543  0.56756  1.0000
  O   O33       1.0  0.66636  0.94538  0.06743  1.0000
  O   O34       1.0  0.66651  0.94540  0.56738  1.0000
  O   O35       1.0  0.99981  0.94557  0.06756  1.0000
  O   O36       1.0  0.99978  0.94553  0.56747  1.0000
  O   O37       1.0  0.99990  0.05564  0.43342  1.0000
  O   O38       1.0  0.99992  0.05567  0.93349  1.0000
  O   O39       1.0  0.33322  0.05566  0.43335  1.0000
  O   O40       1.0  0.33306  0.05567  0.93338  1.0000
  O   O41       1.0  0.16648  0.55571  0.43347  1.0000
  O   O42       1.0  0.16651  0.55562  0.93337  1.0000
  O   O43       1.0  0.66654  0.05557  0.43330  1.0000
  O   O44       1.0  0.66653  0.05560  0.93340  1.0000
  O   O45       1.0  0.49989  0.55568  0.43350  1.0000
  O   O46       1.0  0.49981  0.55561  0.93351  1.0000
  O   O47       1.0  0.83302  0.55554  0.43340  1.0000
  O   O48       1.0  0.83308  0.55564  0.93333  1.0000
  O   O49       1.0  0.99988  0.25985  0.07283  1.0000
  O   O50       1.0  0.99979  0.25985  0.57280  1.0000
  O   O51       1.0  0.33323  0.25985  0.07276  1.0000
  O   O52       1.0  0.33325  0.25983  0.57272  1.0000
  O   O53       1.0  0.16643  0.75975  0.07274  1.0000
  O   O54       1.0  0.16641  0.75984  0.57281  1.0000
  O   O55       1.0  0.66652  0.25980  0.07273  1.0000
  O   O56       1.0  0.66644  0.25971  0.57266  1.0000
  O   O57       1.0  0.49977  0.75983  0.07282  1.0000
  O   O58       1.0  0.49973  0.75979  0.57286  1.0000
  O   O59       1.0  0.83312  0.75981  0.07273  1.0000
  O   O60       1.0  0.83310  0.75977  0.57279  1.0000
  O   O61       1.0  0.16648  0.24136  0.42811  1.0000
  O   O62       1.0  0.16649  0.24134  0.92809  1.0000
  O   O63       1.0  0.49984  0.24125  0.42795  1.0000
  O   O64       1.0  0.49982  0.24123  0.92805  1.0000
  O   O65       1.0  0.33316  0.74128  0.42811  1.0000
  O   O66       1.0  0.33320  0.74127  0.92812  1.0000
  O   O67       1.0  0.83319  0.24126  0.42805  1.0000
  O   O68       1.0  0.83322  0.24123  0.92810  1.0000
  O   O69       1.0  0.66641  0.74123  0.42811  1.0000
  O   O70       1.0  0.66646  0.74124  0.92797  1.0000
  O   O71       1.0  0.99976  0.74130  0.42808  1.0000
  O   O72       1.0  0.99977  0.74133  0.92820  1.0000
  O   O73       1.0  0.99982  0.36123  0.39924  1.0000
  O   O74       1.0  0.99985  0.36112  0.89913  1.0000
  O   O75       1.0  0.33316  0.36115  0.39923  1.0000
  O   O76       1.0  0.33318  0.36110  0.89918  1.0000
  O   O77       1.0  0.16647  0.86106  0.39909  1.0000
  O   O78       1.0  0.16651  0.86112  0.89931  1.0000
  O   O79       1.0  0.66651  0.36100  0.39900  1.0000
  O   O80       1.0  0.66651  0.36101  0.89925  1.0000
  O   O81       1.0  0.49980  0.86115  0.39917  1.0000
  O   O82       1.0  0.49979  0.86113  0.89915  1.0000
  O   O83       1.0  0.83312  0.86105  0.39909  1.0000
  O   O84       1.0  0.83314  0.86116  0.89904  1.0000
  O   O85       1.0  0.16652  0.14004  0.10172  1.0000
  O   O86       1.0  0.16648  0.14009  0.60178  1.0000
  O   O87       1.0  0.49986  0.14007  0.10175  1.0000
  O   O88       1.0  0.49984  0.14005  0.60178  1.0000
  O   O89       1.0  0.33312  0.64002  0.10182  1.0000
  O   O90       1.0  0.33307  0.64002  0.60188  1.0000
  O   O91       1.0  0.83318  0.13994  0.10169  1.0000
  O   O92       1.0  0.83311  0.14001  0.60177  1.0000
  O   O93       1.0  0.66648  0.63992  0.10161  1.0000
  O   O94       1.0  0.66645  0.64001  0.60194  1.0000
  O   O95       1.0  0.99982  0.64011  0.10185  1.0000
  O   O96       1.0  0.99974  0.63999  0.60161  1.0000
