data_image0
_chemical_formula_structural       Ba24Ca24O48
_chemical_formula_sum              "Ba24 Ca24 O48"
_cell_length_a       11.2067
_cell_length_b       12.5706
_cell_length_c       12.1742
_cell_angle_alpha    89.9991
_cell_angle_beta     89.9956
_cell_angle_gamma    89.996

_space_group_name_H-M_alt    "P 1"
_space_group_IT_number       1

loop_
  _space_group_symop_operation_xyz
  'x, y, z'

loop_
  _atom_site_type_symbol
  _atom_site_label
  _atom_site_symmetry_multiplicity
  _atom_site_fract_x
  _atom_site_fract_y
  _atom_site_fract_z
  _atom_site_occupancy
  Ba  Ba1       1.0  0.08372  0.29616  0.64204  1.0000
  Ba  Ba2       1.0  0.08381  0.79621  0.64200  1.0000
  Ba  Ba3       1.0  0.41715  0.29623  0.64197  1.0000
  Ba  Ba4       1.0  0.41703  0.79613  0.64203  1.0000
  Ba  Ba5       1.0  0.75042  0.29618  0.64204  1.0000
  Ba  Ba6       1.0  0.75038  0.79620  0.64203  1.0000
  Ba  Ba7       1.0  0.08386  0.04624  0.85880  1.0000
  Ba  Ba8       1.0  0.08375  0.54617  0.85873  1.0000
  Ba  Ba9       1.0  0.41715  0.04619  0.85865  1.0000
  Ba  Ba10      1.0  0.41710  0.54616  0.85876  1.0000
  Ba  Ba11      1.0  0.75051  0.04618  0.85878  1.0000
  Ba  Ba12      1.0  0.75051  0.54624  0.85870  1.0000
  Ba  Ba13      1.0  0.25053  0.20464  0.35878  1.0000
  Ba  Ba14      1.0  0.25044  0.70461  0.35872  1.0000
  Ba  Ba15      1.0  0.58378  0.20463  0.35869  1.0000
  Ba  Ba16      1.0  0.58370  0.70461  0.35876  1.0000
  Ba  Ba17      1.0  0.91714  0.20464  0.35869  1.0000
  Ba  Ba18      1.0  0.91721  0.70465  0.35880  1.0000
  Ba  Ba19      1.0  0.25042  0.45464  0.14204  1.0000
  Ba  Ba20      1.0  0.25043  0.95460  0.14205  1.0000
  Ba  Ba21      1.0  0.58375  0.45460  0.14208  1.0000
  Ba  Ba22      1.0  0.58376  0.95459  0.14201  1.0000
  Ba  Ba23      1.0  0.91709  0.45464  0.14203  1.0000
  Ba  Ba24      1.0  0.91713  0.95462  0.14208  1.0000
  Ca  Ca1       1.0  0.08380  0.45633  0.39280  1.0000
  Ca  Ca2       1.0  0.08380  0.95644  0.39279  1.0000
  Ca  Ca3       1.0  0.41718  0.45640  0.39280  1.0000
  Ca  Ca4       1.0  0.41715  0.95645  0.39287  1.0000
  Ca  Ca5       1.0  0.75054  0.45641  0.39282  1.0000
  Ca  Ca6       1.0  0.75044  0.95642  0.39280  1.0000
  Ca  Ca7       1.0  0.08381  0.20640  0.10799  1.0000
  Ca  Ca8       1.0  0.08382  0.70642  0.10800  1.0000
  Ca  Ca9       1.0  0.41710  0.20638  0.10800  1.0000
  Ca  Ca10      1.0  0.41720  0.70638  0.10796  1.0000
  Ca  Ca11      1.0  0.75049  0.20639  0.10798  1.0000
  Ca  Ca12      1.0  0.75042  0.70641  0.10800  1.0000
  Ca  Ca13      1.0  0.25047  0.29445  0.89274  1.0000
  Ca  Ca14      1.0  0.25052  0.79439  0.89286  1.0000
  Ca  Ca15      1.0  0.58385  0.29437  0.89291  1.0000
  Ca  Ca16      1.0  0.58380  0.79437  0.89276  1.0000
  Ca  Ca17      1.0  0.91716  0.29443  0.89279  1.0000
  Ca  Ca18      1.0  0.91715  0.79443  0.89283  1.0000
  Ca  Ca19      1.0  0.25041  0.04440  0.60799  1.0000
  Ca  Ca20      1.0  0.25053  0.54446  0.60798  1.0000
  Ca  Ca21      1.0  0.58381  0.04444  0.60804  1.0000
  Ca  Ca22      1.0  0.58388  0.54443  0.60802  1.0000
  Ca  Ca23      1.0  0.91714  0.04441  0.60799  1.0000
  Ca  Ca24      1.0  0.91721  0.54444  0.60800  1.0000
  O   O1        1.0  0.08378  0.10799  0.51843  1.0000
  O   O2        1.0  0.08382  0.60794  0.51840  1.0000
  O   O3        1.0  0.41717  0.10809  0.51839  1.0000
  O   O4        1.0  0.41726  0.60799  0.51846  1.0000
  O   O5        1.0  0.75043  0.10804  0.51842  1.0000
  O   O6        1.0  0.75059  0.60802  0.51844  1.0000
  O   O7        1.0  0.08378  0.35796  0.98242  1.0000
  O   O8        1.0  0.08380  0.85796  0.98234  1.0000
  O   O9        1.0  0.41711  0.35799  0.98230  1.0000
  O   O10       1.0  0.41721  0.85800  0.98231  1.0000
  O   O11       1.0  0.75056  0.35803  0.98235  1.0000
  O   O12       1.0  0.75043  0.85796  0.98233  1.0000
  O   O13       1.0  0.08386  0.32811  0.25227  1.0000
  O   O14       1.0  0.08384  0.82820  0.25233  1.0000
  O   O15       1.0  0.41717  0.32819  0.25234  1.0000
  O   O16       1.0  0.41712  0.82813  0.25232  1.0000
  O   O17       1.0  0.75043  0.32813  0.25237  1.0000
  O   O18       1.0  0.75040  0.82814  0.25237  1.0000
  O   O19       1.0  0.08374  0.07808  0.24843  1.0000
  O   O20       1.0  0.08383  0.57814  0.24844  1.0000
  O   O21       1.0  0.41720  0.07812  0.24842  1.0000
  O   O22       1.0  0.41712  0.57810  0.24844  1.0000
  O   O23       1.0  0.75034  0.07811  0.24841  1.0000
  O   O24       1.0  0.75051  0.57817  0.24850  1.0000
  O   O25       1.0  0.25045  0.42267  0.75229  1.0000
  O   O26       1.0  0.25047  0.92267  0.75235  1.0000
  O   O27       1.0  0.58370  0.42268  0.75242  1.0000
  O   O28       1.0  0.58376  0.92266  0.75237  1.0000
  O   O29       1.0  0.91711  0.42267  0.75230  1.0000
  O   O30       1.0  0.91713  0.92268  0.75233  1.0000
  O   O31       1.0  0.25030  0.17265  0.74845  1.0000
  O   O32       1.0  0.25046  0.67266  0.74849  1.0000
  O   O33       1.0  0.58377  0.17266  0.74847  1.0000
  O   O34       1.0  0.58376  0.67263  0.74843  1.0000
  O   O35       1.0  0.91708  0.17271  0.74844  1.0000
  O   O36       1.0  0.91713  0.67273  0.74833  1.0000
  O   O37       1.0  0.25047  0.39288  0.48231  1.0000
  O   O38       1.0  0.25037  0.89280  0.48242  1.0000
  O   O39       1.0  0.58384  0.39283  0.48234  1.0000
  O   O40       1.0  0.58379  0.89285  0.48236  1.0000
  O   O41       1.0  0.91717  0.39278  0.48238  1.0000
  O   O42       1.0  0.91718  0.89284  0.48241  1.0000
  O   O43       1.0  0.25044  0.14288  0.01846  1.0000
  O   O44       1.0  0.25047  0.64289  0.01839  1.0000
  O   O45       1.0  0.58379  0.14283  0.01838  1.0000
  O   O46       1.0  0.58377  0.64277  0.01841  1.0000
  O   O47       1.0  0.91711  0.14280  0.01845  1.0000
  O   O48       1.0  0.91719  0.64283  0.01842  1.0000
