data_image0
_chemical_formula_structural       Nb32Ge32O112
_chemical_formula_sum              "Nb32 Ge32 O112"
_cell_length_a       11.3869
_cell_length_b       15.905
_cell_length_c       13.535
_cell_angle_alpha    84.0865
_cell_angle_beta     89.9969
_cell_angle_gamma    90.0036

_space_group_name_H-M_alt    "P 1"
_space_group_IT_number       1

loop_
  _space_group_symop_operation_xyz
  'x, y, z'

loop_
  _atom_site_type_symbol
  _atom_site_label
  _atom_site_symmetry_multiplicity
  _atom_site_fract_x
  _atom_site_fract_y
  _atom_site_fract_z
  _atom_site_occupancy
  Nb  Nb1       1.0  0.13775  0.46279  0.32682  1.0000
  Nb  Nb2       1.0  0.13777  0.96279  0.32682  1.0000
  Nb  Nb3       1.0  0.63774  0.46279  0.32681  1.0000
  Nb  Nb4       1.0  0.63773  0.96278  0.32682  1.0000
  Nb  Nb5       1.0  0.39306  0.48340  0.12363  1.0000
  Nb  Nb6       1.0  0.39307  0.98340  0.12361  1.0000
  Nb  Nb7       1.0  0.89305  0.48341  0.12359  1.0000
  Nb  Nb8       1.0  0.89306  0.98340  0.12362  1.0000
  Nb  Nb9       1.0  0.38206  0.29367  0.68588  1.0000
  Nb  Nb10      1.0  0.38204  0.79367  0.68589  1.0000
  Nb  Nb11      1.0  0.88208  0.29367  0.68587  1.0000
  Nb  Nb12      1.0  0.88210  0.79367  0.68587  1.0000
  Nb  Nb13      1.0  0.14284  0.26474  0.89007  1.0000
  Nb  Nb14      1.0  0.14282  0.76475  0.89007  1.0000
  Nb  Nb15      1.0  0.64283  0.26474  0.89008  1.0000
  Nb  Nb16      1.0  0.64284  0.76475  0.89008  1.0000
  Nb  Nb17      1.0  0.39280  0.23577  0.11073  1.0000
  Nb  Nb18      1.0  0.39278  0.73578  0.11071  1.0000
  Nb  Nb19      1.0  0.89278  0.23578  0.11070  1.0000
  Nb  Nb20      1.0  0.89279  0.73578  0.11073  1.0000
  Nb  Nb21      1.0  0.13208  0.20691  0.31489  1.0000
  Nb  Nb22      1.0  0.13211  0.70692  0.31491  1.0000
  Nb  Nb23      1.0  0.63211  0.20690  0.31488  1.0000
  Nb  Nb24      1.0  0.63208  0.70690  0.31487  1.0000
  Nb  Nb25      1.0  0.14296  0.01714  0.87703  1.0000
  Nb  Nb26      1.0  0.14297  0.51714  0.87704  1.0000
  Nb  Nb27      1.0  0.64297  0.01715  0.87704  1.0000
  Nb  Nb28      1.0  0.64297  0.51716  0.87705  1.0000
  Nb  Nb29      1.0  0.38779  0.03782  0.67400  1.0000
  Nb  Nb30      1.0  0.38779  0.53783  0.67397  1.0000
  Nb  Nb31      1.0  0.88781  0.03781  0.67398  1.0000
  Nb  Nb32      1.0  0.88780  0.53782  0.67401  1.0000
  Ge  Ge1       1.0  0.12370  0.42560  0.57156  1.0000
  Ge  Ge2       1.0  0.12370  0.92559  0.57156  1.0000
  Ge  Ge3       1.0  0.62368  0.42559  0.57160  1.0000
  Ge  Ge4       1.0  0.62368  0.92561  0.57160  1.0000
  Ge  Ge5       1.0  0.43116  0.41217  0.90361  1.0000
  Ge  Ge6       1.0  0.43117  0.91217  0.90362  1.0000
  Ge  Ge7       1.0  0.93117  0.41214  0.90363  1.0000
  Ge  Ge8       1.0  0.93114  0.91217  0.90363  1.0000
  Ge  Ge9       1.0  0.17087  0.34755  0.14203  1.0000
  Ge  Ge10      1.0  0.17086  0.84755  0.14203  1.0000
  Ge  Ge11      1.0  0.67086  0.34756  0.14203  1.0000
  Ge  Ge12      1.0  0.67086  0.84755  0.14201  1.0000
  Ge  Ge13      1.0  0.37188  0.28848  0.42823  1.0000
  Ge  Ge14      1.0  0.37187  0.78849  0.42822  1.0000
  Ge  Ge15      1.0  0.87188  0.28848  0.42822  1.0000
  Ge  Ge16      1.0  0.87185  0.78850  0.42827  1.0000
  Ge  Ge17      1.0  0.12198  0.21216  0.57249  1.0000
  Ge  Ge18      1.0  0.12206  0.71214  0.57254  1.0000
  Ge  Ge19      1.0  0.62202  0.21219  0.57251  1.0000
  Ge  Ge20      1.0  0.62192  0.71216  0.57246  1.0000
  Ge  Ge21      1.0  0.42086  0.15315  0.85891  1.0000
  Ge  Ge22      1.0  0.42087  0.65316  0.85890  1.0000
  Ge  Ge23      1.0  0.92086  0.15315  0.85886  1.0000
  Ge  Ge24      1.0  0.92085  0.65316  0.85892  1.0000
  Ge  Ge25      1.0  0.18111  0.08818  0.09714  1.0000
  Ge  Ge26      1.0  0.18109  0.58816  0.09716  1.0000
  Ge  Ge27      1.0  0.68110  0.08817  0.09713  1.0000
  Ge  Ge28      1.0  0.68109  0.58816  0.09713  1.0000
  Ge  Ge29      1.0  0.37379  0.07490  0.42930  1.0000
  Ge  Ge30      1.0  0.37381  0.57489  0.42927  1.0000
  Ge  Ge31      1.0  0.87378  0.07489  0.42928  1.0000
  Ge  Ge32      1.0  0.87376  0.57490  0.42933  1.0000
  O   O1        1.0  0.27533  0.48963  0.39183  1.0000
  O   O2        1.0  0.27536  0.98963  0.39184  1.0000
  O   O3        1.0  0.77535  0.48964  0.39183  1.0000
  O   O4        1.0  0.77534  0.98964  0.39182  1.0000
  O   O5        1.0  0.22851  0.48997  0.18326  1.0000
  O   O6        1.0  0.22852  0.98998  0.18325  1.0000
  O   O7        1.0  0.72850  0.48995  0.18323  1.0000
  O   O8        1.0  0.72851  0.98995  0.18324  1.0000
  O   O9        1.0  0.36365  0.40755  0.69209  1.0000
  O   O10       1.0  0.36362  0.90755  0.69207  1.0000
  O   O11       1.0  0.86362  0.40754  0.69207  1.0000
  O   O12       1.0  0.86362  0.90755  0.69205  1.0000
  O   O13       1.0  0.10609  0.38819  0.89190  1.0000
  O   O14       1.0  0.10606  0.88820  0.89188  1.0000
  O   O15       1.0  0.60608  0.38820  0.89189  1.0000
  O   O16       1.0  0.60606  0.88821  0.89186  1.0000
  O   O17       1.0  0.05349  0.43237  0.44333  1.0000
  O   O18       1.0  0.05353  0.93237  0.44330  1.0000
  O   O19       1.0  0.55353  0.43234  0.44332  1.0000
  O   O20       1.0  0.55353  0.93237  0.44334  1.0000
  O   O21       1.0  0.48752  0.48179  0.00789  1.0000
  O   O22       1.0  0.48754  0.98180  0.00789  1.0000
  O   O23       1.0  0.98754  0.48178  0.00790  1.0000
  O   O24       1.0  0.98749  0.98177  0.00790  1.0000
  O   O25       1.0  0.49183  0.47428  0.22935  1.0000
  O   O26       1.0  0.49184  0.97424  0.22938  1.0000
  O   O27       1.0  0.99186  0.47428  0.22934  1.0000
  O   O28       1.0  0.99187  0.97425  0.22935  1.0000
  O   O29       1.0  0.03047  0.30943  0.60781  1.0000
  O   O30       1.0  0.03052  0.80942  0.60787  1.0000
  O   O31       1.0  0.53049  0.30945  0.60785  1.0000
  O   O32       1.0  0.53043  0.80941  0.60781  1.0000
  O   O33       1.0  0.47427  0.26871  0.81321  1.0000
  O   O34       1.0  0.47425  0.76873  0.81322  1.0000
  O   O35       1.0  0.97427  0.26871  0.81320  1.0000
  O   O36       1.0  0.97424  0.76871  0.81324  1.0000
  O   O37       1.0  0.34373  0.36239  0.11726  1.0000
  O   O38       1.0  0.34374  0.86241  0.11725  1.0000
  O   O39       1.0  0.84373  0.36241  0.11723  1.0000
  O   O40       1.0  0.84373  0.86239  0.11729  1.0000
  O   O41       1.0  0.16216  0.34751  0.28964  1.0000
  O   O42       1.0  0.16221  0.84752  0.28963  1.0000
  O   O43       1.0  0.66219  0.34750  0.28964  1.0000
  O   O44       1.0  0.66216  0.84750  0.28964  1.0000
  O   O45       1.0  0.29550  0.27100  0.56074  1.0000
  O   O46       1.0  0.29542  0.77098  0.56076  1.0000
  O   O47       1.0  0.79546  0.27102  0.56075  1.0000
  O   O48       1.0  0.79551  0.77102  0.56075  1.0000
  O   O49       1.0  0.25529  0.24970  0.98778  1.0000
  O   O50       1.0  0.25529  0.74973  0.98777  1.0000
  O   O51       1.0  0.75527  0.24970  0.98780  1.0000
  O   O52       1.0  0.75530  0.74975  0.98778  1.0000
  O   O53       1.0  0.23457  0.26743  0.77423  1.0000
  O   O54       1.0  0.23457  0.76739  0.77424  1.0000
  O   O55       1.0  0.73459  0.26739  0.77425  1.0000
  O   O56       1.0  0.73460  0.76741  0.77426  1.0000
  O   O57       1.0  0.48456  0.23307  0.22651  1.0000
  O   O58       1.0  0.48453  0.73306  0.22650  1.0000
  O   O59       1.0  0.98458  0.23308  0.22647  1.0000
  O   O60       1.0  0.98458  0.73307  0.22650  1.0000
  O   O61       1.0  0.00522  0.25080  0.01292  1.0000
  O   O62       1.0  0.00525  0.75079  0.01295  1.0000
  O   O63       1.0  0.50524  0.25077  0.01295  1.0000
  O   O64       1.0  0.50523  0.75079  0.01295  1.0000
  O   O65       1.0  0.04549  0.22959  0.44000  1.0000
  O   O66       1.0  0.04564  0.72962  0.44003  1.0000
  O   O67       1.0  0.54557  0.22963  0.44000  1.0000
  O   O68       1.0  0.54544  0.72962  0.43999  1.0000
  O   O69       1.0  0.41222  0.15307  0.71120  1.0000
  O   O70       1.0  0.41227  0.65306  0.71119  1.0000
  O   O71       1.0  0.91230  0.15306  0.71117  1.0000
  O   O72       1.0  0.91223  0.65305  0.71122  1.0000
  O   O73       1.0  0.09364  0.13815  0.88343  1.0000
  O   O74       1.0  0.09364  0.63814  0.88346  1.0000
  O   O75       1.0  0.59365  0.13814  0.88346  1.0000
  O   O76       1.0  0.59365  0.63815  0.88347  1.0000
  O   O77       1.0  0.22428  0.23190  0.18756  1.0000
  O   O78       1.0  0.22427  0.73192  0.18755  1.0000
  O   O79       1.0  0.72429  0.23190  0.18756  1.0000
  O   O80       1.0  0.72427  0.73191  0.18757  1.0000
  O   O81       1.0  0.28046  0.19122  0.39293  1.0000
  O   O82       1.0  0.28055  0.69122  0.39288  1.0000
  O   O83       1.0  0.78049  0.19121  0.39294  1.0000
  O   O84       1.0  0.78042  0.69122  0.39297  1.0000
  O   O85       1.0  0.24176  0.02636  0.77130  1.0000
  O   O86       1.0  0.24180  0.52635  0.77132  1.0000
  O   O87       1.0  0.74178  0.02636  0.77129  1.0000
  O   O88       1.0  0.74176  0.52635  0.77129  1.0000
  O   O89       1.0  0.23744  0.01873  0.99276  1.0000
  O   O90       1.0  0.23743  0.51871  0.99277  1.0000
  O   O91       1.0  0.73746  0.01872  0.99276  1.0000
  O   O92       1.0  0.73747  0.51871  0.99275  1.0000
  O   O93       1.0  0.30358  0.06821  0.55746  1.0000
  O   O94       1.0  0.30360  0.56821  0.55745  1.0000
  O   O95       1.0  0.80354  0.06820  0.55745  1.0000
  O   O96       1.0  0.80356  0.56819  0.55747  1.0000
  O   O97       1.0  0.35598  0.11229  0.10881  1.0000
  O   O98       1.0  0.35595  0.61230  0.10880  1.0000
  O   O99       1.0  0.85597  0.11229  0.10881  1.0000
  O   O100      1.0  0.85596  0.61230  0.10881  1.0000
  O   O101      1.0  0.11368  0.09300  0.30865  1.0000
  O   O102      1.0  0.11370  0.59301  0.30867  1.0000
  O   O103      1.0  0.61368  0.09301  0.30864  1.0000
  O   O104      1.0  0.61371  0.59302  0.30862  1.0000
  O   O105      1.0  0.47849  0.01042  0.81745  1.0000
  O   O106      1.0  0.47851  0.51040  0.81744  1.0000
  O   O107      1.0  0.97847  0.01039  0.81747  1.0000
  O   O108      1.0  0.97849  0.51037  0.81746  1.0000
  O   O109      1.0  0.02532  0.01090  0.60890  1.0000
  O   O110      1.0  0.02534  0.51091  0.60892  1.0000
  O   O111      1.0  0.52535  0.01094  0.60892  1.0000
  O   O112      1.0  0.52534  0.51093  0.60890  1.0000
