data_image0
_chemical_formula_structural       Ba24Na8Ta8O48
_chemical_formula_sum              "Ba24 Na8 Ta8 O48"
_cell_length_a       9.96202
_cell_length_b       10.3485
_cell_length_c       14.371
_cell_angle_alpha    89.9995
_cell_angle_beta     93.1037
_cell_angle_gamma    89.9952

_space_group_name_H-M_alt    "P 1"
_space_group_IT_number       1

loop_
  _space_group_symop_operation_xyz
  'x, y, z'

loop_
  _atom_site_type_symbol
  _atom_site_label
  _atom_site_symmetry_multiplicity
  _atom_site_fract_x
  _atom_site_fract_y
  _atom_site_fract_z
  _atom_site_occupancy
  Ba  Ba1       1.0  0.57493  0.67602  0.30093  1.0000
  Ba  Ba2       1.0  0.57492  0.67607  0.80102  1.0000
  Ba  Ba3       1.0  0.07500  0.17601  0.30094  1.0000
  Ba  Ba4       1.0  0.07496  0.17611  0.80102  1.0000
  Ba  Ba5       1.0  0.75062  0.14939  0.12547  1.0000
  Ba  Ba6       1.0  0.75058  0.14938  0.62540  1.0000
  Ba  Ba7       1.0  0.25054  0.64929  0.12538  1.0000
  Ba  Ba8       1.0  0.25051  0.64933  0.62531  1.0000
  Ba  Ba9       1.0  0.57489  0.82494  0.05103  1.0000
  Ba  Ba10      1.0  0.57498  0.82487  0.55099  1.0000
  Ba  Ba11      1.0  0.07500  0.32496  0.05095  1.0000
  Ba  Ba12      1.0  0.07485  0.32486  0.55101  1.0000
  Ba  Ba13      1.0  0.42622  0.32492  0.19976  1.0000
  Ba  Ba14      1.0  0.42621  0.32489  0.69982  1.0000
  Ba  Ba15      1.0  0.92622  0.82491  0.19982  1.0000
  Ba  Ba16      1.0  0.92624  0.82503  0.69984  1.0000
  Ba  Ba17      1.0  0.25060  0.85157  0.37532  1.0000
  Ba  Ba18      1.0  0.25049  0.85166  0.87538  1.0000
  Ba  Ba19      1.0  0.75059  0.35163  0.37543  1.0000
  Ba  Ba20      1.0  0.75060  0.35164  0.87545  1.0000
  Ba  Ba21      1.0  0.42616  0.17610  0.44981  1.0000
  Ba  Ba22      1.0  0.42628  0.17597  0.94984  1.0000
  Ba  Ba23      1.0  0.92621  0.67600  0.44981  1.0000
  Ba  Ba24      1.0  0.92607  0.67616  0.94981  1.0000
  Na  Na1       1.0  0.25039  0.00041  0.12511  1.0000
  Na  Na2       1.0  0.25033  0.00059  0.62519  1.0000
  Na  Na3       1.0  0.75038  0.50075  0.12523  1.0000
  Na  Na4       1.0  0.74996  0.50067  0.62543  1.0000
  Na  Na5       1.0  0.75040  0.00050  0.37514  1.0000
  Na  Na6       1.0  0.75033  0.00052  0.87521  1.0000
  Na  Na7       1.0  0.25035  0.50024  0.37511  1.0000
  Na  Na8       1.0  0.25034  0.50051  0.87522  1.0000
  Ta  Ta1       1.0  0.00044  0.00056  0.00042  1.0000
  Ta  Ta2       1.0  0.00053  0.00047  0.50037  1.0000
  Ta  Ta3       1.0  0.50052  0.50047  0.00038  1.0000
  Ta  Ta4       1.0  0.50044  0.50049  0.50031  1.0000
  Ta  Ta5       1.0  0.50053  0.00049  0.25039  1.0000
  Ta  Ta6       1.0  0.50051  0.00038  0.75036  1.0000
  Ta  Ta7       1.0  0.00046  0.50042  0.25031  1.0000
  Ta  Ta8       1.0  0.00045  0.50053  0.75040  1.0000
  O   O1        1.0  0.39257  0.84285  0.21107  1.0000
  O   O2        1.0  0.39249  0.84287  0.71100  1.0000
  O   O3        1.0  0.89243  0.34286  0.21106  1.0000
  O   O4        1.0  0.89239  0.34292  0.71111  1.0000
  O   O5        1.0  0.48613  0.06453  0.11758  1.0000
  O   O6        1.0  0.48620  0.06463  0.61762  1.0000
  O   O7        1.0  0.98606  0.56452  0.11750  1.0000
  O   O8        1.0  0.98604  0.56462  0.61759  1.0000
  O   O9        1.0  0.32837  0.09401  0.27515  1.0000
  O   O10       1.0  0.32835  0.09395  0.77517  1.0000
  O   O11       1.0  0.82840  0.59407  0.27509  1.0000
  O   O12       1.0  0.82832  0.59410  0.77520  1.0000
  O   O13       1.0  0.51496  0.56446  0.13324  1.0000
  O   O14       1.0  0.51505  0.56467  0.63313  1.0000
  O   O15       1.0  0.01506  0.06455  0.13326  1.0000
  O   O16       1.0  0.01517  0.06460  0.63319  1.0000
  O   O17       1.0  0.60871  0.34296  0.03968  1.0000
  O   O18       1.0  0.60850  0.34290  0.53975  1.0000
  O   O19       1.0  0.10869  0.84292  0.03967  1.0000
  O   O20       1.0  0.10876  0.84286  0.53967  1.0000
  O   O21       1.0  0.17270  0.09407  0.47561  1.0000
  O   O22       1.0  0.17269  0.09406  0.97569  1.0000
  O   O23       1.0  0.67278  0.59392  0.47556  1.0000
  O   O24       1.0  0.67272  0.59415  0.97575  1.0000
  O   O25       1.0  0.60865  0.15815  0.28973  1.0000
  O   O26       1.0  0.60866  0.15797  0.78981  1.0000
  O   O27       1.0  0.10874  0.65795  0.28969  1.0000
  O   O28       1.0  0.10866  0.65809  0.78969  1.0000
  O   O29       1.0  0.51513  0.93640  0.38324  1.0000
  O   O30       1.0  0.51494  0.93623  0.88320  1.0000
  O   O31       1.0  0.01504  0.43632  0.38316  1.0000
  O   O32       1.0  0.01499  0.43642  0.88321  1.0000
  O   O33       1.0  0.67287  0.90699  0.22572  1.0000
  O   O34       1.0  0.67279  0.90678  0.72568  1.0000
  O   O35       1.0  0.17275  0.40680  0.22557  1.0000
  O   O36       1.0  0.17272  0.40694  0.72569  1.0000
  O   O37       1.0  0.48599  0.43631  0.36753  1.0000
  O   O38       1.0  0.48619  0.43645  0.86754  1.0000
  O   O39       1.0  0.98609  0.93640  0.36755  1.0000
  O   O40       1.0  0.98593  0.93651  0.86760  1.0000
  O   O41       1.0  0.82830  0.90702  0.02522  1.0000
  O   O42       1.0  0.82845  0.90684  0.52519  1.0000
  O   O43       1.0  0.32838  0.40682  0.02504  1.0000
  O   O44       1.0  0.32826  0.40702  0.52513  1.0000
  O   O45       1.0  0.39247  0.65812  0.46097  1.0000
  O   O46       1.0  0.39234  0.65808  0.96116  1.0000
  O   O47       1.0  0.89235  0.15799  0.46116  1.0000
  O   O48       1.0  0.89245  0.15815  0.96119  1.0000
