data_image0
_chemical_formula_structural       Sn32O64
_chemical_formula_sum              "Sn32 O64"
_cell_length_a       12.8429
_cell_length_b       9.51902
_cell_length_c       9.52107
_cell_angle_alpha    90.0011
_cell_angle_beta     89.9979
_cell_angle_gamma    90.0046

_space_group_name_H-M_alt    "P 1"
_space_group_IT_number       1

loop_
  _space_group_symop_operation_xyz
  'x, y, z'

loop_
  _atom_site_type_symbol
  _atom_site_label
  _atom_site_symmetry_multiplicity
  _atom_site_fract_x
  _atom_site_fract_y
  _atom_site_fract_z
  _atom_site_occupancy
  Sn  Sn1       1.0  0.12536  0.25073  0.25065  1.0000
  Sn  Sn2       1.0  0.12543  0.25051  0.75050  1.0000
  Sn  Sn3       1.0  0.12543  0.75043  0.25048  1.0000
  Sn  Sn4       1.0  0.12545  0.75057  0.75056  1.0000
  Sn  Sn5       1.0  0.37539  0.25048  0.25050  1.0000
  Sn  Sn6       1.0  0.37542  0.25054  0.75057  1.0000
  Sn  Sn7       1.0  0.37539  0.75046  0.25051  1.0000
  Sn  Sn8       1.0  0.37543  0.75043  0.75049  1.0000
  Sn  Sn9       1.0  0.62539  0.25050  0.25065  1.0000
  Sn  Sn10      1.0  0.62540  0.25046  0.75065  1.0000
  Sn  Sn11      1.0  0.62542  0.75059  0.25060  1.0000
  Sn  Sn12      1.0  0.62545  0.75060  0.75057  1.0000
  Sn  Sn13      1.0  0.87542  0.25047  0.25056  1.0000
  Sn  Sn14      1.0  0.87541  0.25042  0.75063  1.0000
  Sn  Sn15      1.0  0.87546  0.75058  0.25061  1.0000
  Sn  Sn16      1.0  0.87543  0.75067  0.75064  1.0000
  Sn  Sn17      1.0  0.00042  0.00059  0.00061  1.0000
  Sn  Sn18      1.0  0.00046  0.00052  0.50054  1.0000
  Sn  Sn19      1.0  0.00038  0.50060  0.00045  1.0000
  Sn  Sn20      1.0  0.00036  0.50061  0.50073  1.0000
  Sn  Sn21      1.0  0.25041  0.00054  0.00057  1.0000
  Sn  Sn22      1.0  0.25044  0.00049  0.50047  1.0000
  Sn  Sn23      1.0  0.25041  0.50041  0.00051  1.0000
  Sn  Sn24      1.0  0.25044  0.50054  0.50050  1.0000
  Sn  Sn25      1.0  0.50037  0.00045  0.00061  1.0000
  Sn  Sn26      1.0  0.50039  0.00052  0.50053  1.0000
  Sn  Sn27      1.0  0.50043  0.50059  0.00060  1.0000
  Sn  Sn28      1.0  0.50045  0.50055  0.50053  1.0000
  Sn  Sn29      1.0  0.75039  0.00054  0.00069  1.0000
  Sn  Sn30      1.0  0.75042  0.00053  0.50059  1.0000
  Sn  Sn31      1.0  0.75040  0.50054  0.00067  1.0000
  Sn  Sn32      1.0  0.75043  0.50048  0.50066  1.0000
  O   O1        1.0  0.12545  0.09781  0.40353  1.0000
  O   O2        1.0  0.12545  0.09776  0.90356  1.0000
  O   O3        1.0  0.12537  0.59757  0.40342  1.0000
  O   O4        1.0  0.12545  0.59764  0.90343  1.0000
  O   O5        1.0  0.37539  0.09771  0.40348  1.0000
  O   O6        1.0  0.37543  0.09764  0.90350  1.0000
  O   O7        1.0  0.37546  0.59774  0.40352  1.0000
  O   O8        1.0  0.37542  0.59749  0.90335  1.0000
  O   O9        1.0  0.62540  0.09748  0.40339  1.0000
  O   O10       1.0  0.62538  0.09751  0.90346  1.0000
  O   O11       1.0  0.62552  0.59744  0.40325  1.0000
  O   O12       1.0  0.62547  0.59785  0.90366  1.0000
  O   O13       1.0  0.87550  0.09753  0.40342  1.0000
  O   O14       1.0  0.87539  0.09766  0.90362  1.0000
  O   O15       1.0  0.87539  0.59785  0.40370  1.0000
  O   O16       1.0  0.87537  0.59766  0.90340  1.0000
  O   O17       1.0  0.12534  0.40325  0.09738  1.0000
  O   O18       1.0  0.12541  0.40329  0.59747  1.0000
  O   O19       1.0  0.12541  0.90321  0.09747  1.0000
  O   O20       1.0  0.12544  0.90336  0.59756  1.0000
  O   O21       1.0  0.37542  0.40327  0.09754  1.0000
  O   O22       1.0  0.37546  0.40323  0.59739  1.0000
  O   O23       1.0  0.37534  0.90332  0.09765  1.0000
  O   O24       1.0  0.37540  0.90316  0.59739  1.0000
  O   O25       1.0  0.62542  0.40330  0.09761  1.0000
  O   O26       1.0  0.62542  0.40328  0.59761  1.0000
  O   O27       1.0  0.62539  0.90333  0.09762  1.0000
  O   O28       1.0  0.62540  0.90345  0.59766  1.0000
  O   O29       1.0  0.87542  0.40354  0.09781  1.0000
  O   O30       1.0  0.87537  0.40333  0.59777  1.0000
  O   O31       1.0  0.87546  0.90340  0.09764  1.0000
  O   O32       1.0  0.87547  0.90337  0.59762  1.0000
  O   O33       1.0  0.00044  0.15346  0.15353  1.0000
  O   O34       1.0  0.00041  0.15331  0.65355  1.0000
  O   O35       1.0  0.00039  0.65326  0.15354  1.0000
  O   O36       1.0  0.00044  0.65344  0.65366  1.0000
  O   O37       1.0  0.25032  0.15344  0.15351  1.0000
  O   O38       1.0  0.25045  0.15320  0.65363  1.0000
  O   O39       1.0  0.25042  0.65315  0.15353  1.0000
  O   O40       1.0  0.25041  0.65331  0.65344  1.0000
  O   O41       1.0  0.50041  0.15317  0.15366  1.0000
  O   O42       1.0  0.50040  0.15332  0.65350  1.0000
  O   O43       1.0  0.50043  0.65341  0.15350  1.0000
  O   O44       1.0  0.50051  0.65349  0.65330  1.0000
  O   O45       1.0  0.75040  0.15333  0.15359  1.0000
  O   O46       1.0  0.75041  0.15329  0.65356  1.0000
  O   O47       1.0  0.75046  0.65348  0.15354  1.0000
  O   O48       1.0  0.75043  0.65356  0.65341  1.0000
  O   O49       1.0  0.00031  0.34775  0.34772  1.0000
  O   O50       1.0  0.00040  0.34768  0.84755  1.0000
  O   O51       1.0  0.00051  0.84763  0.34765  1.0000
  O   O52       1.0  0.00047  0.84772  0.84767  1.0000
  O   O53       1.0  0.25045  0.34798  0.34730  1.0000
  O   O54       1.0  0.25043  0.34788  0.84731  1.0000
  O   O55       1.0  0.25039  0.84766  0.34741  1.0000
  O   O56       1.0  0.25050  0.84762  0.84761  1.0000
  O   O57       1.0  0.50038  0.34774  0.34755  1.0000
  O   O58       1.0  0.50044  0.34758  0.84781  1.0000
  O   O59       1.0  0.50038  0.84770  0.34755  1.0000
  O   O60       1.0  0.50038  0.84748  0.84778  1.0000
  O   O61       1.0  0.75047  0.34742  0.34785  1.0000
  O   O62       1.0  0.75041  0.34753  0.84784  1.0000
  O   O63       1.0  0.75047  0.84778  0.34755  1.0000
  O   O64       1.0  0.75043  0.84788  0.84758  1.0000
