data_image0
_chemical_formula_structural       Ga64O96
_chemical_formula_sum              "Ga64 O96"
_cell_length_a       12.1922
_cell_length_b       11.6432
_cell_length_c       12.6355
_cell_angle_alpha    103.419
_cell_angle_beta     103.991
_cell_angle_gamma    89.9774

_space_group_name_H-M_alt    "P 1"
_space_group_IT_number       1

loop_
  _space_group_symop_operation_xyz
  'x, y, z'

loop_
  _atom_site_type_symbol
  _atom_site_label
  _atom_site_symmetry_multiplicity
  _atom_site_fract_x
  _atom_site_fract_y
  _atom_site_fract_z
  _atom_site_occupancy
  Ga  Ga1       1.0  0.16526  0.15777  0.15944  1.0000
  Ga  Ga2       1.0  0.16521  0.15771  0.65936  1.0000
  Ga  Ga3       1.0  0.16518  0.65775  0.15927  1.0000
  Ga  Ga4       1.0  0.16511  0.65779  0.65931  1.0000
  Ga  Ga5       1.0  0.41525  0.15780  0.15940  1.0000
  Ga  Ga6       1.0  0.41522  0.15789  0.65937  1.0000
  Ga  Ga7       1.0  0.41521  0.65775  0.15928  1.0000
  Ga  Ga8       1.0  0.41511  0.65782  0.65938  1.0000
  Ga  Ga9       1.0  0.66518  0.15790  0.15931  1.0000
  Ga  Ga10      1.0  0.66522  0.15787  0.65928  1.0000
  Ga  Ga11      1.0  0.66515  0.65789  0.15932  1.0000
  Ga  Ga12      1.0  0.66511  0.65792  0.65938  1.0000
  Ga  Ga13      1.0  0.91526  0.15779  0.15940  1.0000
  Ga  Ga14      1.0  0.91523  0.15786  0.65930  1.0000
  Ga  Ga15      1.0  0.91516  0.65784  0.15932  1.0000
  Ga  Ga16      1.0  0.91515  0.65789  0.65937  1.0000
  Ga  Ga17      1.0  0.08598  0.34324  0.34175  1.0000
  Ga  Ga18      1.0  0.08584  0.34326  0.84176  1.0000
  Ga  Ga19      1.0  0.08602  0.84315  0.34174  1.0000
  Ga  Ga20      1.0  0.08590  0.84327  0.84174  1.0000
  Ga  Ga21      1.0  0.33600  0.34325  0.34177  1.0000
  Ga  Ga22      1.0  0.33584  0.34319  0.84178  1.0000
  Ga  Ga23      1.0  0.33599  0.84309  0.34173  1.0000
  Ga  Ga24      1.0  0.33588  0.84320  0.84176  1.0000
  Ga  Ga25      1.0  0.58602  0.34313  0.34182  1.0000
  Ga  Ga26      1.0  0.58585  0.34323  0.84175  1.0000
  Ga  Ga27      1.0  0.58599  0.84321  0.34173  1.0000
  Ga  Ga28      1.0  0.58587  0.84333  0.84175  1.0000
  Ga  Ga29      1.0  0.83595  0.34320  0.34176  1.0000
  Ga  Ga30      1.0  0.83585  0.34326  0.84173  1.0000
  Ga  Ga31      1.0  0.83598  0.84321  0.34171  1.0000
  Ga  Ga32      1.0  0.83585  0.84339  0.84175  1.0000
  Ga  Ga33      1.0  0.02307  0.39784  0.09120  1.0000
  Ga  Ga34      1.0  0.02309  0.39786  0.59117  1.0000
  Ga  Ga35      1.0  0.02319  0.89791  0.09123  1.0000
  Ga  Ga36      1.0  0.02324  0.89784  0.59112  1.0000
  Ga  Ga37      1.0  0.27312  0.39782  0.09120  1.0000
  Ga  Ga38      1.0  0.27307  0.39787  0.59122  1.0000
  Ga  Ga39      1.0  0.27316  0.89788  0.09123  1.0000
  Ga  Ga40      1.0  0.27329  0.89783  0.59117  1.0000
  Ga  Ga41      1.0  0.52315  0.39788  0.09122  1.0000
  Ga  Ga42      1.0  0.52311  0.39797  0.59124  1.0000
  Ga  Ga43      1.0  0.52317  0.89787  0.09120  1.0000
  Ga  Ga44      1.0  0.52327  0.89790  0.59117  1.0000
  Ga  Ga45      1.0  0.77309  0.39796  0.09127  1.0000
  Ga  Ga46      1.0  0.77312  0.39798  0.59124  1.0000
  Ga  Ga47      1.0  0.77318  0.89797  0.09122  1.0000
  Ga  Ga48      1.0  0.77327  0.89794  0.59118  1.0000
  Ga  Ga49      1.0  0.22764  0.10316  0.40992  1.0000
  Ga  Ga50      1.0  0.22762  0.10323  0.90997  1.0000
  Ga  Ga51      1.0  0.22762  0.60312  0.40981  1.0000
  Ga  Ga52      1.0  0.22754  0.60316  0.90985  1.0000
  Ga  Ga53      1.0  0.47765  0.10311  0.40988  1.0000
  Ga  Ga54      1.0  0.47758  0.10314  0.90984  1.0000
  Ga  Ga55      1.0  0.47762  0.60309  0.40982  1.0000
  Ga  Ga56      1.0  0.47754  0.60313  0.90984  1.0000
  Ga  Ga57      1.0  0.72767  0.10314  0.40978  1.0000
  Ga  Ga58      1.0  0.72764  0.10329  0.90995  1.0000
  Ga  Ga59      1.0  0.72761  0.60317  0.40988  1.0000
  Ga  Ga60      1.0  0.72751  0.60323  0.90982  1.0000
  Ga  Ga61      1.0  0.97764  0.10309  0.40979  1.0000
  Ga  Ga62      1.0  0.97762  0.10325  0.90989  1.0000
  Ga  Ga63      1.0  0.97760  0.60316  0.40984  1.0000
  Ga  Ga64      1.0  0.97750  0.60327  0.90985  1.0000
  O   O1        1.0  0.12443  0.12838  0.49695  1.0000
  O   O2        1.0  0.12444  0.12851  0.99703  1.0000
  O   O3        1.0  0.12446  0.62840  0.49689  1.0000
  O   O4        1.0  0.12436  0.62858  0.99689  1.0000
  O   O5        1.0  0.37449  0.12855  0.49697  1.0000
  O   O6        1.0  0.37448  0.12851  0.99699  1.0000
  O   O7        1.0  0.37446  0.62828  0.49693  1.0000
  O   O8        1.0  0.37439  0.62851  0.99691  1.0000
  O   O9        1.0  0.62451  0.12846  0.49687  1.0000
  O   O10       1.0  0.62441  0.12851  0.99693  1.0000
  O   O11       1.0  0.62442  0.62852  0.49696  1.0000
  O   O12       1.0  0.62435  0.62852  0.99690  1.0000
  O   O13       1.0  0.87450  0.12848  0.49687  1.0000
  O   O14       1.0  0.87449  0.12845  0.99700  1.0000
  O   O15       1.0  0.87447  0.62849  0.49695  1.0000
  O   O16       1.0  0.87434  0.62861  0.99691  1.0000
  O   O17       1.0  0.12633  0.37228  0.00421  1.0000
  O   O18       1.0  0.12633  0.37219  0.50417  1.0000
  O   O19       1.0  0.12640  0.87233  0.00419  1.0000
  O   O20       1.0  0.12650  0.87220  0.50417  1.0000
  O   O21       1.0  0.37637  0.37227  0.00419  1.0000
  O   O22       1.0  0.37634  0.37237  0.50422  1.0000
  O   O23       1.0  0.37639  0.87230  0.00421  1.0000
  O   O24       1.0  0.37650  0.87210  0.50413  1.0000
  O   O25       1.0  0.62635  0.37229  0.00418  1.0000
  O   O26       1.0  0.62634  0.37235  0.50423  1.0000
  O   O27       1.0  0.62640  0.87238  0.00417  1.0000
  O   O28       1.0  0.62648  0.87232  0.50417  1.0000
  O   O29       1.0  0.87629  0.37225  0.00419  1.0000
  O   O30       1.0  0.87631  0.37231  0.50417  1.0000
  O   O31       1.0  0.87642  0.87240  0.00420  1.0000
  O   O32       1.0  0.87646  0.87222  0.50413  1.0000
  O   O33       1.0  0.04375  0.28170  0.17375  1.0000
  O   O34       1.0  0.04379  0.28183  0.67382  1.0000
  O   O35       1.0  0.04379  0.78177  0.17378  1.0000
  O   O36       1.0  0.04376  0.78182  0.67378  1.0000
  O   O37       1.0  0.29378  0.28174  0.17381  1.0000
  O   O38       1.0  0.29371  0.28178  0.67383  1.0000
  O   O39       1.0  0.29377  0.78173  0.17377  1.0000
  O   O40       1.0  0.29373  0.78179  0.67380  1.0000
  O   O41       1.0  0.54384  0.28184  0.17384  1.0000
  O   O42       1.0  0.54372  0.28184  0.67379  1.0000
  O   O43       1.0  0.54380  0.78173  0.17374  1.0000
  O   O44       1.0  0.54371  0.78184  0.67380  1.0000
  O   O45       1.0  0.79379  0.28182  0.17382  1.0000
  O   O46       1.0  0.79374  0.28180  0.67370  1.0000
  O   O47       1.0  0.79375  0.78180  0.17372  1.0000
  O   O48       1.0  0.79375  0.78187  0.67377  1.0000
  O   O49       1.0  0.20724  0.21922  0.32740  1.0000
  O   O50       1.0  0.20711  0.21917  0.82737  1.0000
  O   O51       1.0  0.20719  0.71914  0.32730  1.0000
  O   O52       1.0  0.20711  0.71914  0.82728  1.0000
  O   O53       1.0  0.45723  0.21915  0.32734  1.0000
  O   O54       1.0  0.45718  0.21915  0.82734  1.0000
  O   O55       1.0  0.45723  0.71907  0.32725  1.0000
  O   O56       1.0  0.45709  0.71920  0.82731  1.0000
  O   O57       1.0  0.70717  0.21921  0.32733  1.0000
  O   O58       1.0  0.70724  0.21920  0.82729  1.0000
  O   O59       1.0  0.70721  0.71915  0.32727  1.0000
  O   O60       1.0  0.70720  0.71933  0.82733  1.0000
  O   O61       1.0  0.95727  0.21921  0.32737  1.0000
  O   O62       1.0  0.95716  0.21920  0.82730  1.0000
  O   O63       1.0  0.95726  0.71919  0.32734  1.0000
  O   O64       1.0  0.95716  0.71928  0.82732  1.0000
  O   O65       1.0  0.20940  0.44576  0.33600  1.0000
  O   O66       1.0  0.20936  0.44577  0.83624  1.0000
  O   O67       1.0  0.20952  0.94577  0.33622  1.0000
  O   O68       1.0  0.20947  0.94583  0.83628  1.0000
  O   O69       1.0  0.45948  0.44573  0.33603  1.0000
  O   O70       1.0  0.45930  0.44575  0.83613  1.0000
  O   O71       1.0  0.45945  0.94572  0.33614  1.0000
  O   O72       1.0  0.45934  0.94579  0.83613  1.0000
  O   O73       1.0  0.70947  0.44578  0.33618  1.0000
  O   O74       1.0  0.70930  0.44582  0.83611  1.0000
  O   O75       1.0  0.70945  0.94576  0.33608  1.0000
  O   O76       1.0  0.70934  0.94593  0.83615  1.0000
  O   O77       1.0  0.95940  0.44578  0.33610  1.0000
  O   O78       1.0  0.95931  0.44585  0.83615  1.0000
  O   O79       1.0  0.95945  0.94573  0.33604  1.0000
  O   O80       1.0  0.95940  0.94588  0.83617  1.0000
  O   O81       1.0  0.04174  0.05515  0.16530  1.0000
  O   O82       1.0  0.04164  0.05512  0.66504  1.0000
  O   O83       1.0  0.04162  0.55516  0.16508  1.0000
  O   O84       1.0  0.04159  0.55516  0.66509  1.0000
  O   O85       1.0  0.29173  0.05514  0.16528  1.0000
  O   O86       1.0  0.29170  0.05513  0.66511  1.0000
  O   O87       1.0  0.29167  0.55512  0.16506  1.0000
  O   O88       1.0  0.29158  0.55515  0.66517  1.0000
  O   O89       1.0  0.54171  0.05517  0.16515  1.0000
  O   O90       1.0  0.54166  0.05520  0.66505  1.0000
  O   O91       1.0  0.54165  0.55516  0.16504  1.0000
  O   O92       1.0  0.54165  0.55523  0.66525  1.0000
  O   O93       1.0  0.79166  0.05524  0.16526  1.0000
  O   O94       1.0  0.79169  0.05523  0.66505  1.0000
  O   O95       1.0  0.79162  0.55524  0.16511  1.0000
  O   O96       1.0  0.79159  0.55525  0.66518  1.0000
