data_image0
_chemical_formula_structural       Ba24Na8Nb8O48
_chemical_formula_sum              "Ba24 Na8 Nb8 O48"
_cell_length_a       9.97828
_cell_length_b       10.3632
_cell_length_c       14.3936
_cell_angle_alpha    89.9972
_cell_angle_beta     93.0931
_cell_angle_gamma    89.997

_space_group_name_H-M_alt    "P 1"
_space_group_IT_number       1

loop_
  _space_group_symop_operation_xyz
  'x, y, z'

loop_
  _atom_site_type_symbol
  _atom_site_label
  _atom_site_symmetry_multiplicity
  _atom_site_fract_x
  _atom_site_fract_y
  _atom_site_fract_z
  _atom_site_occupancy
  Ba  Ba1       1.0  0.57443  0.32437  0.30156  1.0000
  Ba  Ba2       1.0  0.57440  0.32426  0.80159  1.0000
  Ba  Ba3       1.0  0.07428  0.82432  0.30151  1.0000
  Ba  Ba4       1.0  0.07439  0.82419  0.80150  1.0000
  Ba  Ba5       1.0  0.42676  0.82429  0.44915  1.0000
  Ba  Ba6       1.0  0.42675  0.82423  0.94911  1.0000
  Ba  Ba7       1.0  0.92681  0.32423  0.44913  1.0000
  Ba  Ba8       1.0  0.92690  0.32429  0.94915  1.0000
  Ba  Ba9       1.0  0.75058  0.85289  0.12535  1.0000
  Ba  Ba10      1.0  0.75060  0.85291  0.62532  1.0000
  Ba  Ba11      1.0  0.25058  0.35291  0.12530  1.0000
  Ba  Ba12      1.0  0.25062  0.35288  0.62531  1.0000
  Ba  Ba13      1.0  0.42684  0.67673  0.19913  1.0000
  Ba  Ba14      1.0  0.42687  0.67654  0.69910  1.0000
  Ba  Ba15      1.0  0.92680  0.17662  0.19911  1.0000
  Ba  Ba16      1.0  0.92686  0.17665  0.69909  1.0000
  Ba  Ba17      1.0  0.57430  0.17661  0.05147  1.0000
  Ba  Ba18      1.0  0.57424  0.17671  0.55160  1.0000
  Ba  Ba19      1.0  0.07429  0.67675  0.05156  1.0000
  Ba  Ba20      1.0  0.07425  0.67664  0.55149  1.0000
  Ba  Ba21      1.0  0.25056  0.14809  0.37532  1.0000
  Ba  Ba22      1.0  0.25057  0.14807  0.87531  1.0000
  Ba  Ba23      1.0  0.75053  0.64818  0.37530  1.0000
  Ba  Ba24      1.0  0.75065  0.64808  0.87532  1.0000
  Na  Na1       1.0  0.74992  0.00078  0.37555  1.0000
  Na  Na2       1.0  0.75040  0.00048  0.87507  1.0000
  Na  Na3       1.0  0.25054  0.50043  0.37494  1.0000
  Na  Na4       1.0  0.25018  0.50052  0.87535  1.0000
  Na  Na5       1.0  0.25039  0.00080  0.12518  1.0000
  Na  Na6       1.0  0.25024  0.00024  0.62521  1.0000
  Na  Na7       1.0  0.75066  0.50038  0.12486  1.0000
  Na  Na8       1.0  0.75046  0.50028  0.62507  1.0000
  Nb  Nb1       1.0  0.50047  0.00059  0.25030  1.0000
  Nb  Nb2       1.0  0.50048  0.00042  0.75026  1.0000
  Nb  Nb3       1.0  0.00046  0.50046  0.25031  1.0000
  Nb  Nb4       1.0  0.00056  0.50041  0.75027  1.0000
  Nb  Nb5       1.0  0.00048  0.00048  0.00023  1.0000
  Nb  Nb6       1.0  0.00050  0.00046  0.50026  1.0000
  Nb  Nb7       1.0  0.50054  0.50046  0.00034  1.0000
  Nb  Nb8       1.0  0.50050  0.50047  0.50031  1.0000
  O   O1        1.0  0.39142  0.34164  0.46083  1.0000
  O   O2        1.0  0.39147  0.34164  0.96085  1.0000
  O   O3        1.0  0.89130  0.84165  0.46092  1.0000
  O   O4        1.0  0.89129  0.84158  0.96092  1.0000
  O   O5        1.0  0.48602  0.56488  0.36640  1.0000
  O   O6        1.0  0.48608  0.56479  0.86639  1.0000
  O   O7        1.0  0.98604  0.06478  0.36633  1.0000
  O   O8        1.0  0.98603  0.06471  0.86631  1.0000
  O   O9        1.0  0.82712  0.09507  0.02509  1.0000
  O   O10       1.0  0.82709  0.09507  0.52520  1.0000
  O   O11       1.0  0.32705  0.59492  0.02521  1.0000
  O   O12       1.0  0.32705  0.59495  0.52516  1.0000
  O   O13       1.0  0.51511  0.06484  0.38433  1.0000
  O   O14       1.0  0.51506  0.06455  0.88429  1.0000
  O   O15       1.0  0.01506  0.56476  0.38431  1.0000
  O   O16       1.0  0.01532  0.56478  0.88426  1.0000
  O   O17       1.0  0.60969  0.84174  0.28976  1.0000
  O   O18       1.0  0.60981  0.84156  0.78962  1.0000
  O   O19       1.0  0.10969  0.34163  0.28970  1.0000
  O   O20       1.0  0.10990  0.34163  0.78973  1.0000
  O   O21       1.0  0.67396  0.09519  0.22549  1.0000
  O   O22       1.0  0.67408  0.09502  0.72555  1.0000
  O   O23       1.0  0.17404  0.59509  0.22557  1.0000
  O   O24       1.0  0.17404  0.59508  0.72543  1.0000
  O   O25       1.0  0.60971  0.65937  0.03979  1.0000
  O   O26       1.0  0.60961  0.65935  0.53982  1.0000
  O   O27       1.0  0.10979  0.15932  0.03959  1.0000
  O   O28       1.0  0.10978  0.15920  0.53975  1.0000
  O   O29       1.0  0.51510  0.43629  0.13435  1.0000
  O   O30       1.0  0.51520  0.43613  0.63434  1.0000
  O   O31       1.0  0.01507  0.93639  0.13429  1.0000
  O   O32       1.0  0.01508  0.93611  0.63429  1.0000
  O   O33       1.0  0.17399  0.90576  0.47546  1.0000
  O   O34       1.0  0.17399  0.90575  0.97545  1.0000
  O   O35       1.0  0.67413  0.40597  0.47553  1.0000
  O   O36       1.0  0.67414  0.40585  0.97563  1.0000
  O   O37       1.0  0.48596  0.93629  0.11636  1.0000
  O   O38       1.0  0.48595  0.93626  0.61629  1.0000
  O   O39       1.0  0.98607  0.43622  0.11633  1.0000
  O   O40       1.0  0.98595  0.43601  0.61636  1.0000
  O   O41       1.0  0.32705  0.90600  0.27517  1.0000
  O   O42       1.0  0.32711  0.90574  0.77511  1.0000
  O   O43       1.0  0.82711  0.40585  0.27514  1.0000
  O   O44       1.0  0.82721  0.40585  0.77528  1.0000
  O   O45       1.0  0.39134  0.15947  0.21093  1.0000
  O   O46       1.0  0.39138  0.15931  0.71094  1.0000
  O   O47       1.0  0.89139  0.65938  0.21083  1.0000
  O   O48       1.0  0.89137  0.65923  0.71084  1.0000
