data_image0
_chemical_formula_structural       Rb36Hf36O90
_chemical_formula_sum              "Rb36 Hf36 O90"
_cell_length_a       12.0945
_cell_length_b       12.0945
_cell_length_c       18.0279
_cell_angle_alpha    90
_cell_angle_beta     90
_cell_angle_gamma    90

_space_group_name_H-M_alt    "P 1"
_space_group_IT_number       1

loop_
  _space_group_symop_operation_xyz
  'x, y, z'

loop_
  _atom_site_type_symbol
  _atom_site_label
  _atom_site_symmetry_multiplicity
  _atom_site_fract_x
  _atom_site_fract_y
  _atom_site_fract_z
  _atom_site_occupancy
  Rb  Rb1       1.0  0.00047  0.00025  0.00014  1.0000
  Rb  Rb2       1.0  0.00031  0.00022  0.50031  1.0000
  Rb  Rb3       1.0  0.00044  0.33362  0.00029  1.0000
  Rb  Rb4       1.0  0.00030  0.33358  0.50018  1.0000
  Rb  Rb5       1.0  0.00069  0.66700  0.00037  1.0000
  Rb  Rb6       1.0  0.00019  0.66698  0.50036  1.0000
  Rb  Rb7       1.0  0.33371  0.00042  0.00023  1.0000
  Rb  Rb8       1.0  0.33380  0.00032  0.50018  1.0000
  Rb  Rb9       1.0  0.33387  0.33350  0.00023  1.0000
  Rb  Rb10      1.0  0.33387  0.33351  0.50034  1.0000
  Rb  Rb11      1.0  0.33365  0.66725  0.00023  1.0000
  Rb  Rb12      1.0  0.33364  0.66690  0.50019  1.0000
  Rb  Rb13      1.0  0.66707  0.00039  0.00019  1.0000
  Rb  Rb14      1.0  0.66688  0.00027  0.50031  1.0000
  Rb  Rb15      1.0  0.66727  0.33354  0.00037  1.0000
  Rb  Rb16      1.0  0.66689  0.33368  0.50031  1.0000
  Rb  Rb17      1.0  0.66728  0.66716  0.00039  1.0000
  Rb  Rb18      1.0  0.66712  0.66708  0.50037  1.0000
  Rb  Rb19      1.0  0.00038  0.00047  0.25029  1.0000
  Rb  Rb20      1.0  0.00034  0.00050  0.75015  1.0000
  Rb  Rb21      1.0  0.00032  0.33385  0.25039  1.0000
  Rb  Rb22      1.0  0.00040  0.33389  0.75034  1.0000
  Rb  Rb23      1.0  0.00051  0.66699  0.25016  1.0000
  Rb  Rb24      1.0  0.00053  0.66702  0.75037  1.0000
  Rb  Rb25      1.0  0.33382  0.00026  0.25041  1.0000
  Rb  Rb26      1.0  0.33367  0.00051  0.75024  1.0000
  Rb  Rb27      1.0  0.33363  0.33370  0.25019  1.0000
  Rb  Rb28      1.0  0.33386  0.33365  0.75034  1.0000
  Rb  Rb29      1.0  0.33369  0.66709  0.25037  1.0000
  Rb  Rb30      1.0  0.33364  0.66715  0.75029  1.0000
  Rb  Rb31      1.0  0.66702  0.00037  0.25032  1.0000
  Rb  Rb32      1.0  0.66720  0.00051  0.75024  1.0000
  Rb  Rb33      1.0  0.66696  0.33375  0.25013  1.0000
  Rb  Rb34      1.0  0.66710  0.33393  0.75020  1.0000
  Rb  Rb35      1.0  0.66705  0.66722  0.25029  1.0000
  Rb  Rb36      1.0  0.66722  0.66718  0.75016  1.0000
  Hf  Hf1       1.0  0.16701  0.16699  0.14021  1.0000
  Hf  Hf2       1.0  0.16709  0.16708  0.64017  1.0000
  Hf  Hf3       1.0  0.16718  0.50036  0.14027  1.0000
  Hf  Hf4       1.0  0.16710  0.50033  0.64024  1.0000
  Hf  Hf5       1.0  0.16704  0.83367  0.14022  1.0000
  Hf  Hf6       1.0  0.16712  0.83378  0.64016  1.0000
  Hf  Hf7       1.0  0.50030  0.16702  0.14017  1.0000
  Hf  Hf8       1.0  0.50045  0.16708  0.64017  1.0000
  Hf  Hf9       1.0  0.50046  0.50047  0.14012  1.0000
  Hf  Hf10      1.0  0.50036  0.50047  0.64020  1.0000
  Hf  Hf11      1.0  0.50038  0.83376  0.14024  1.0000
  Hf  Hf12      1.0  0.50041  0.83382  0.64018  1.0000
  Hf  Hf13      1.0  0.83366  0.16709  0.14021  1.0000
  Hf  Hf14      1.0  0.83383  0.16719  0.64016  1.0000
  Hf  Hf15      1.0  0.83373  0.50049  0.14014  1.0000
  Hf  Hf16      1.0  0.83381  0.50045  0.64018  1.0000
  Hf  Hf17      1.0  0.83375  0.83378  0.14016  1.0000
  Hf  Hf18      1.0  0.83381  0.83377  0.64026  1.0000
  Hf  Hf19      1.0  0.16706  0.16707  0.36037  1.0000
  Hf  Hf20      1.0  0.16706  0.16709  0.86030  1.0000
  Hf  Hf21      1.0  0.16700  0.50033  0.36041  1.0000
  Hf  Hf22      1.0  0.16716  0.50035  0.86037  1.0000
  Hf  Hf23      1.0  0.16704  0.83368  0.36038  1.0000
  Hf  Hf24      1.0  0.16713  0.83379  0.86028  1.0000
  Hf  Hf25      1.0  0.50037  0.16705  0.36038  1.0000
  Hf  Hf26      1.0  0.50049  0.16700  0.86034  1.0000
  Hf  Hf27      1.0  0.50037  0.50042  0.36028  1.0000
  Hf  Hf28      1.0  0.50035  0.50045  0.86037  1.0000
  Hf  Hf29      1.0  0.50041  0.83370  0.36043  1.0000
  Hf  Hf30      1.0  0.50050  0.83375  0.86032  1.0000
  Hf  Hf31      1.0  0.83362  0.16710  0.36038  1.0000
  Hf  Hf32      1.0  0.83380  0.16715  0.86029  1.0000
  Hf  Hf33      1.0  0.83366  0.50045  0.36030  1.0000
  Hf  Hf34      1.0  0.83375  0.50047  0.86034  1.0000
  Hf  Hf35      1.0  0.83380  0.83372  0.36032  1.0000
  Hf  Hf36      1.0  0.83382  0.83372  0.86037  1.0000
  O   O1        1.0  0.16700  0.00032  0.11833  1.0000
  O   O2        1.0  0.16707  0.00038  0.61811  1.0000
  O   O3        1.0  0.16715  0.33373  0.11838  1.0000
  O   O4        1.0  0.16711  0.33368  0.61837  1.0000
  O   O5        1.0  0.16717  0.66705  0.11832  1.0000
  O   O6        1.0  0.16700  0.66699  0.61850  1.0000
  O   O7        1.0  0.50042  0.00044  0.11817  1.0000
  O   O8        1.0  0.50054  0.00046  0.61815  1.0000
  O   O9        1.0  0.50031  0.33378  0.11835  1.0000
  O   O10       1.0  0.50041  0.33379  0.61829  1.0000
  O   O11       1.0  0.50038  0.66724  0.11821  1.0000
  O   O12       1.0  0.50048  0.66715  0.61817  1.0000
  O   O13       1.0  0.83384  0.00037  0.11840  1.0000
  O   O14       1.0  0.83382  0.00042  0.61836  1.0000
  O   O15       1.0  0.83374  0.33375  0.11834  1.0000
  O   O16       1.0  0.83386  0.33377  0.61826  1.0000
  O   O17       1.0  0.83366  0.66708  0.11813  1.0000
  O   O18       1.0  0.83366  0.66704  0.61828  1.0000
  O   O19       1.0  0.16714  0.00041  0.38224  1.0000
  O   O20       1.0  0.16698  0.00039  0.88214  1.0000
  O   O21       1.0  0.16697  0.33375  0.38236  1.0000
  O   O22       1.0  0.16705  0.33371  0.88222  1.0000
  O   O23       1.0  0.16695  0.66706  0.38230  1.0000
  O   O24       1.0  0.16723  0.66705  0.88223  1.0000
  O   O25       1.0  0.50034  0.00036  0.38239  1.0000
  O   O26       1.0  0.50059  0.00036  0.88236  1.0000
  O   O27       1.0  0.50041  0.33372  0.38218  1.0000
  O   O28       1.0  0.50041  0.33366  0.88215  1.0000
  O   O29       1.0  0.50056  0.66703  0.38240  1.0000
  O   O30       1.0  0.50023  0.66714  0.88235  1.0000
  O   O31       1.0  0.83372  0.00044  0.38224  1.0000
  O   O32       1.0  0.83394  0.00038  0.88213  1.0000
  O   O33       1.0  0.83367  0.33382  0.38229  1.0000
  O   O34       1.0  0.83358  0.33380  0.88228  1.0000
  O   O35       1.0  0.83377  0.66713  0.38230  1.0000
  O   O36       1.0  0.83382  0.66701  0.88236  1.0000
  O   O37       1.0  0.16709  0.16699  0.25030  1.0000
  O   O38       1.0  0.16697  0.16703  0.75023  1.0000
  O   O39       1.0  0.16712  0.50048  0.25034  1.0000
  O   O40       1.0  0.16724  0.50022  0.75030  1.0000
  O   O41       1.0  0.16701  0.83364  0.25031  1.0000
  O   O42       1.0  0.16717  0.83381  0.75021  1.0000
  O   O43       1.0  0.50042  0.16696  0.25028  1.0000
  O   O44       1.0  0.50052  0.16694  0.75024  1.0000
  O   O45       1.0  0.50039  0.50054  0.25020  1.0000
  O   O46       1.0  0.50025  0.50065  0.75028  1.0000
  O   O47       1.0  0.50026  0.83369  0.25035  1.0000
  O   O48       1.0  0.50040  0.83389  0.75023  1.0000
  O   O49       1.0  0.83350  0.16718  0.25030  1.0000
  O   O50       1.0  0.83386  0.16725  0.75021  1.0000
  O   O51       1.0  0.83354  0.50049  0.25022  1.0000
  O   O52       1.0  0.83389  0.50047  0.75024  1.0000
  O   O53       1.0  0.83388  0.83360  0.25025  1.0000
  O   O54       1.0  0.83399  0.83362  0.75031  1.0000
  O   O55       1.0  0.00040  0.16713  0.11828  1.0000
  O   O56       1.0  0.00048  0.16712  0.61822  1.0000
  O   O57       1.0  0.00046  0.50044  0.11843  1.0000
  O   O58       1.0  0.00045  0.50038  0.61823  1.0000
  O   O59       1.0  0.00034  0.83363  0.11810  1.0000
  O   O60       1.0  0.00043  0.83375  0.61821  1.0000
  O   O61       1.0  0.33369  0.16705  0.11824  1.0000
  O   O62       1.0  0.33377  0.16701  0.61825  1.0000
  O   O63       1.0  0.33381  0.50046  0.11831  1.0000
  O   O64       1.0  0.33371  0.50033  0.61820  1.0000
  O   O65       1.0  0.33368  0.83384  0.11841  1.0000
  O   O66       1.0  0.33378  0.83374  0.61827  1.0000
  O   O67       1.0  0.66701  0.16713  0.11820  1.0000
  O   O68       1.0  0.66712  0.16719  0.61824  1.0000
  O   O69       1.0  0.66704  0.50037  0.11808  1.0000
  O   O70       1.0  0.66708  0.50026  0.61836  1.0000
  O   O71       1.0  0.66704  0.83387  0.11834  1.0000
  O   O72       1.0  0.66714  0.83377  0.61846  1.0000
  O   O73       1.0  0.00041  0.16712  0.38211  1.0000
  O   O74       1.0  0.00039  0.16730  0.88232  1.0000
  O   O75       1.0  0.00030  0.50043  0.38223  1.0000
  O   O76       1.0  0.00043  0.50034  0.88225  1.0000
  O   O77       1.0  0.00041  0.83389  0.38230  1.0000
  O   O78       1.0  0.00050  0.83364  0.88223  1.0000
  O   O79       1.0  0.33375  0.16710  0.38238  1.0000
  O   O80       1.0  0.33371  0.16695  0.88236  1.0000
  O   O81       1.0  0.33370  0.50038  0.38217  1.0000
  O   O82       1.0  0.33376  0.50022  0.88244  1.0000
  O   O83       1.0  0.33371  0.83357  0.38241  1.0000
  O   O84       1.0  0.33379  0.83394  0.88219  1.0000
  O   O85       1.0  0.66698  0.16711  0.38242  1.0000
  O   O86       1.0  0.66714  0.16701  0.88217  1.0000
  O   O87       1.0  0.66700  0.50033  0.38214  1.0000
  O   O88       1.0  0.66701  0.50044  0.88215  1.0000
  O   O89       1.0  0.66708  0.83384  0.38223  1.0000
  O   O90       1.0  0.66717  0.83363  0.88222  1.0000
