data_image0
_chemical_formula_structural       Cs8Ti48O96
_chemical_formula_sum              "Cs8 Ti48 O96"
_cell_length_a       10.2935
_cell_length_b       10.2935
_cell_length_c       17.8351
_cell_angle_alpha    90
_cell_angle_beta     90
_cell_angle_gamma    90

_space_group_name_H-M_alt    "P 1"
_space_group_IT_number       1

loop_
  _space_group_symop_operation_xyz
  'x, y, z'

loop_
  _atom_site_type_symbol
  _atom_site_label
  _atom_site_symmetry_multiplicity
  _atom_site_fract_x
  _atom_site_fract_y
  _atom_site_fract_z
  _atom_site_occupancy
  Cs  Cs1       1.0  0.00052  0.00068  0.35379  1.0000
  Cs  Cs2       1.0  0.00069  0.00043  0.85396  1.0000
  Cs  Cs3       1.0  0.50053  0.50064  0.60374  1.0000
  Cs  Cs4       1.0  0.50058  0.50050  0.10399  1.0000
  Cs  Cs5       1.0  0.00047  0.00044  0.14648  1.0000
  Cs  Cs6       1.0  0.00049  0.00071  0.64653  1.0000
  Cs  Cs7       1.0  0.50054  0.50062  0.39652  1.0000
  Cs  Cs8       1.0  0.50059  0.50044  0.89673  1.0000
  Ti  Ti1       1.0  0.34712  0.16627  0.25025  1.0000
  Ti  Ti2       1.0  0.34720  0.16651  0.75030  1.0000
  Ti  Ti3       1.0  0.84721  0.66649  0.50031  1.0000
  Ti  Ti4       1.0  0.84730  0.66647  0.00030  1.0000
  Ti  Ti5       1.0  0.16396  0.65211  0.08308  1.0000
  Ti  Ti6       1.0  0.16383  0.65230  0.58314  1.0000
  Ti  Ti7       1.0  0.66379  0.15229  0.33303  1.0000
  Ti  Ti8       1.0  0.66396  0.15216  0.83307  1.0000
  Ti  Ti9       1.0  0.66393  0.15227  0.16747  1.0000
  Ti  Ti10      1.0  0.66384  0.15225  0.66749  1.0000
  Ti  Ti11      1.0  0.16400  0.65231  0.41754  1.0000
  Ti  Ti12      1.0  0.16402  0.65218  0.91752  1.0000
  Ti  Ti13      1.0  0.83710  0.34878  0.08307  1.0000
  Ti  Ti14      1.0  0.83703  0.34876  0.58305  1.0000
  Ti  Ti15      1.0  0.33711  0.84862  0.33315  1.0000
  Ti  Ti16      1.0  0.33716  0.84864  0.83313  1.0000
  Ti  Ti17      1.0  0.15226  0.33693  0.16751  1.0000
  Ti  Ti18      1.0  0.15214  0.33713  0.66746  1.0000
  Ti  Ti19      1.0  0.65236  0.83716  0.41750  1.0000
  Ti  Ti20      1.0  0.65225  0.83702  0.91758  1.0000
  Ti  Ti21      1.0  0.15372  0.33446  0.00032  1.0000
  Ti  Ti22      1.0  0.15368  0.33458  0.50028  1.0000
  Ti  Ti23      1.0  0.65371  0.83457  0.25030  1.0000
  Ti  Ti24      1.0  0.65373  0.83459  0.75033  1.0000
  Ti  Ti25      1.0  0.34875  0.16377  0.08307  1.0000
  Ti  Ti26      1.0  0.34871  0.16396  0.58311  1.0000
  Ti  Ti27      1.0  0.84877  0.66396  0.33311  1.0000
  Ti  Ti28      1.0  0.84873  0.66395  0.83313  1.0000
  Ti  Ti29      1.0  0.84869  0.66393  0.16752  1.0000
  Ti  Ti30      1.0  0.84862  0.66395  0.66752  1.0000
  Ti  Ti31      1.0  0.34861  0.16398  0.41745  1.0000
  Ti  Ti32      1.0  0.34874  0.16399  0.91744  1.0000
  Ti  Ti33      1.0  0.66648  0.15374  0.00029  1.0000
  Ti  Ti34      1.0  0.66632  0.15375  0.50026  1.0000
  Ti  Ti35      1.0  0.16630  0.65376  0.25029  1.0000
  Ti  Ti36      1.0  0.16647  0.65373  0.75034  1.0000
  Ti  Ti37      1.0  0.33699  0.84853  0.16756  1.0000
  Ti  Ti38      1.0  0.33697  0.84875  0.66750  1.0000
  Ti  Ti39      1.0  0.83693  0.34862  0.41745  1.0000
  Ti  Ti40      1.0  0.83705  0.34871  0.91742  1.0000
  Ti  Ti41      1.0  0.83463  0.34728  0.25027  1.0000
  Ti  Ti42      1.0  0.83447  0.34730  0.75020  1.0000
  Ti  Ti43      1.0  0.33462  0.84732  0.50028  1.0000
  Ti  Ti44      1.0  0.33459  0.84723  0.00034  1.0000
  Ti  Ti45      1.0  0.65222  0.83708  0.08313  1.0000
  Ti  Ti46      1.0  0.65221  0.83712  0.58310  1.0000
  Ti  Ti47      1.0  0.15222  0.33712  0.33314  1.0000
  Ti  Ti48      1.0  0.15215  0.33709  0.83308  1.0000
  O   O1        1.0  0.03780  0.66512  0.00027  1.0000
  O   O2        1.0  0.03772  0.66518  0.50027  1.0000
  O   O3        1.0  0.53757  0.16512  0.25023  1.0000
  O   O4        1.0  0.53777  0.16523  0.75029  1.0000
  O   O5        1.0  0.79001  0.15979  0.08299  1.0000
  O   O6        1.0  0.78991  0.15987  0.58292  1.0000
  O   O7        1.0  0.28999  0.65976  0.33301  1.0000
  O   O8        1.0  0.29011  0.65972  0.83302  1.0000
  O   O9        1.0  0.29246  0.65670  0.00028  1.0000
  O   O10       1.0  0.29239  0.65681  0.50028  1.0000
  O   O11       1.0  0.79233  0.15681  0.25025  1.0000
  O   O12       1.0  0.79240  0.15678  0.75022  1.0000
  O   O13       1.0  0.33282  0.03770  0.33399  1.0000
  O   O14       1.0  0.33303  0.03776  0.83403  1.0000
  O   O15       1.0  0.83292  0.53780  0.58407  1.0000
  O   O16       1.0  0.83297  0.53779  0.08408  1.0000
  O   O17       1.0  0.16808  0.46311  0.08402  1.0000
  O   O18       1.0  0.16803  0.46326  0.58402  1.0000
  O   O19       1.0  0.66795  0.96325  0.33404  1.0000
  O   O20       1.0  0.66806  0.96319  0.83409  1.0000
  O   O21       1.0  0.16810  0.46311  0.91652  1.0000
  O   O22       1.0  0.16810  0.46320  0.41646  1.0000
  O   O23       1.0  0.66814  0.96323  0.16651  1.0000
  O   O24       1.0  0.66805  0.96328  0.66648  1.0000
  O   O25       1.0  0.71103  0.34123  0.16753  1.0000
  O   O26       1.0  0.71097  0.34132  0.66751  1.0000
  O   O27       1.0  0.21092  0.84121  0.41754  1.0000
  O   O28       1.0  0.21114  0.84116  0.91759  1.0000
  O   O29       1.0  0.96324  0.33289  0.16646  1.0000
  O   O30       1.0  0.96319  0.33296  0.66646  1.0000
  O   O31       1.0  0.46321  0.83278  0.41652  1.0000
  O   O32       1.0  0.46327  0.83276  0.91653  1.0000
  O   O33       1.0  0.46324  0.83570  0.25026  1.0000
  O   O34       1.0  0.46328  0.83599  0.75032  1.0000
  O   O35       1.0  0.96327  0.33589  0.50025  1.0000
  O   O36       1.0  0.96327  0.33591  0.00025  1.0000
  O   O37       1.0  0.34115  0.28985  0.16751  1.0000
  O   O38       1.0  0.34118  0.29006  0.66757  1.0000
  O   O39       1.0  0.84121  0.79011  0.41762  1.0000
  O   O40       1.0  0.84123  0.79000  0.91758  1.0000
  O   O41       1.0  0.34429  0.29228  0.00029  1.0000
  O   O42       1.0  0.34419  0.29240  0.50018  1.0000
  O   O43       1.0  0.84427  0.79246  0.25027  1.0000
  O   O44       1.0  0.84425  0.79240  0.75028  1.0000
  O   O45       1.0  0.84115  0.78998  0.08301  1.0000
  O   O46       1.0  0.84120  0.79005  0.58303  1.0000
  O   O47       1.0  0.34112  0.28999  0.33292  1.0000
  O   O48       1.0  0.34125  0.29003  0.83302  1.0000
  O   O49       1.0  0.15978  0.21092  0.08296  1.0000
  O   O50       1.0  0.15984  0.21106  0.58295  1.0000
  O   O51       1.0  0.65990  0.71103  0.33298  1.0000
  O   O52       1.0  0.65982  0.71096  0.83299  1.0000
  O   O53       1.0  0.65984  0.71098  0.16759  1.0000
  O   O54       1.0  0.65980  0.71101  0.66757  1.0000
  O   O55       1.0  0.15974  0.21096  0.41757  1.0000
  O   O56       1.0  0.15978  0.21095  0.91752  1.0000
  O   O57       1.0  0.15665  0.20856  0.25028  1.0000
  O   O58       1.0  0.15675  0.20867  0.75023  1.0000
  O   O59       1.0  0.65681  0.70867  0.50026  1.0000
  O   O60       1.0  0.65682  0.70851  0.00032  1.0000
  O   O61       1.0  0.53778  0.16795  0.08401  1.0000
  O   O62       1.0  0.53776  0.16818  0.58400  1.0000
  O   O63       1.0  0.03776  0.66814  0.33405  1.0000
  O   O64       1.0  0.03783  0.66831  0.83405  1.0000
  O   O65       1.0  0.53781  0.16805  0.91652  1.0000
  O   O66       1.0  0.53771  0.16806  0.41646  1.0000
  O   O67       1.0  0.03780  0.66797  0.16646  1.0000
  O   O68       1.0  0.03778  0.66813  0.66650  1.0000
  O   O69       1.0  0.29004  0.65971  0.16759  1.0000
  O   O70       1.0  0.29002  0.65980  0.66755  1.0000
  O   O71       1.0  0.78989  0.15976  0.41747  1.0000
  O   O72       1.0  0.78997  0.15971  0.91754  1.0000
  O   O73       1.0  0.33272  0.03763  0.16650  1.0000
  O   O74       1.0  0.33299  0.03782  0.66644  1.0000
  O   O75       1.0  0.83294  0.53778  0.41646  1.0000
  O   O76       1.0  0.83303  0.53776  0.91650  1.0000
  O   O77       1.0  0.33597  0.03764  0.00027  1.0000
  O   O78       1.0  0.33596  0.03776  0.50027  1.0000
  O   O79       1.0  0.83611  0.53778  0.25029  1.0000
  O   O80       1.0  0.83603  0.53773  0.75028  1.0000
  O   O81       1.0  0.16514  0.46319  0.25030  1.0000
  O   O82       1.0  0.16506  0.46329  0.75032  1.0000
  O   O83       1.0  0.66506  0.96334  0.50029  1.0000
  O   O84       1.0  0.66515  0.96325  0.00031  1.0000
  O   O85       1.0  0.20856  0.84410  0.25029  1.0000
  O   O86       1.0  0.20870  0.84425  0.75028  1.0000
  O   O87       1.0  0.70860  0.34424  0.50020  1.0000
  O   O88       1.0  0.70865  0.34425  0.00026  1.0000
  O   O89       1.0  0.21097  0.84110  0.08299  1.0000
  O   O90       1.0  0.21103  0.84134  0.58298  1.0000
  O   O91       1.0  0.71091  0.34121  0.33291  1.0000
  O   O92       1.0  0.71104  0.34121  0.83299  1.0000
  O   O93       1.0  0.96316  0.33290  0.33402  1.0000
  O   O94       1.0  0.96318  0.33298  0.83399  1.0000
  O   O95       1.0  0.46320  0.83294  0.58407  1.0000
  O   O96       1.0  0.46322  0.83293  0.08408  1.0000
