data_image0
_chemical_formula_structural       In32Ga32O96
_chemical_formula_sum              "In32 Ga32 O96"
_cell_length_a       13.3123
_cell_length_b       11.5261
_cell_length_c       12.0504
_cell_angle_alpha    90.001
_cell_angle_beta     90.0002
_cell_angle_gamma    90.0041

_space_group_name_H-M_alt    "P 1"
_space_group_IT_number       1

loop_
  _space_group_symop_operation_xyz
  'x, y, z'

loop_
  _atom_site_type_symbol
  _atom_site_label
  _atom_site_symmetry_multiplicity
  _atom_site_fract_x
  _atom_site_fract_y
  _atom_site_fract_z
  _atom_site_occupancy
  In  In1       1.0  0.00035  0.00048  0.50036  1.0000
  In  In2       1.0  0.25040  0.00045  0.50042  1.0000
  In  In3       1.0  0.12536  0.25047  0.50027  1.0000
  In  In4       1.0  0.00043  0.50049  0.50056  1.0000
  In  In5       1.0  0.50037  0.00039  0.50046  1.0000
  In  In6       1.0  0.37535  0.25040  0.50037  1.0000
  In  In7       1.0  0.25037  0.50046  0.50042  1.0000
  In  In8       1.0  0.12537  0.75055  0.50056  1.0000
  In  In9       1.0  0.75039  0.00038  0.50034  1.0000
  In  In10      1.0  0.62536  0.25039  0.50051  1.0000
  In  In11      1.0  0.50035  0.50040  0.50039  1.0000
  In  In12      1.0  0.37530  0.75044  0.50064  1.0000
  In  In13      1.0  0.87537  0.25049  0.50032  1.0000
  In  In14      1.0  0.75036  0.50045  0.50033  1.0000
  In  In15      1.0  0.62529  0.75039  0.50049  1.0000
  In  In16      1.0  0.87534  0.75044  0.50032  1.0000
  In  In17      1.0  0.00040  0.00034  0.00038  1.0000
  In  In18      1.0  0.25044  0.00037  0.00044  1.0000
  In  In19      1.0  0.12539  0.25033  0.00017  1.0000
  In  In20      1.0  0.00042  0.50042  0.00058  1.0000
  In  In21      1.0  0.50036  0.00033  0.00049  1.0000
  In  In22      1.0  0.37545  0.25036  0.00034  1.0000
  In  In23      1.0  0.25043  0.50024  0.00056  1.0000
  In  In24      1.0  0.12536  0.75035  0.00047  1.0000
  In  In25      1.0  0.75033  0.00038  0.00036  1.0000
  In  In26      1.0  0.62538  0.25035  0.00047  1.0000
  In  In27      1.0  0.50046  0.50037  0.00034  1.0000
  In  In28      1.0  0.37532  0.75022  0.00061  1.0000
  In  In29      1.0  0.87542  0.25037  0.00032  1.0000
  In  In30      1.0  0.75043  0.50037  0.00036  1.0000
  In  In31      1.0  0.62529  0.75034  0.00048  1.0000
  In  In32      1.0  0.87532  0.75042  0.00034  1.0000
  Ga  Ga1       1.0  0.12535  0.08407  0.75030  1.0000
  Ga  Ga2       1.0  0.37533  0.08405  0.75037  1.0000
  Ga  Ga3       1.0  0.25031  0.33400  0.75033  1.0000
  Ga  Ga4       1.0  0.12535  0.58409  0.75042  1.0000
  Ga  Ga5       1.0  0.62528  0.08408  0.75037  1.0000
  Ga  Ga6       1.0  0.50033  0.33404  0.75037  1.0000
  Ga  Ga7       1.0  0.37530  0.58399  0.75039  1.0000
  Ga  Ga8       1.0  0.25034  0.83400  0.75047  1.0000
  Ga  Ga9       1.0  0.87527  0.08413  0.75033  1.0000
  Ga  Ga10      1.0  0.75037  0.33412  0.75034  1.0000
  Ga  Ga11      1.0  0.62532  0.58404  0.75030  1.0000
  Ga  Ga12      1.0  0.50032  0.83402  0.75048  1.0000
  Ga  Ga13      1.0  0.00032  0.33417  0.75035  1.0000
  Ga  Ga14      1.0  0.87536  0.58423  0.75034  1.0000
  Ga  Ga15      1.0  0.75028  0.83407  0.75038  1.0000
  Ga  Ga16      1.0  0.00035  0.83418  0.75040  1.0000
  Ga  Ga17      1.0  0.00030  0.16707  0.25034  1.0000
  Ga  Ga18      1.0  0.25036  0.16714  0.25034  1.0000
  Ga  Ga19      1.0  0.12540  0.41695  0.25037  1.0000
  Ga  Ga20      1.0  0.00037  0.66714  0.25044  1.0000
  Ga  Ga21      1.0  0.50029  0.16707  0.25045  1.0000
  Ga  Ga22      1.0  0.37541  0.41704  0.25036  1.0000
  Ga  Ga23      1.0  0.25030  0.66716  0.25049  1.0000
  Ga  Ga24      1.0  0.12536  0.91710  0.25033  1.0000
  Ga  Ga25      1.0  0.75032  0.16712  0.25040  1.0000
  Ga  Ga26      1.0  0.62535  0.41693  0.25035  1.0000
  Ga  Ga27      1.0  0.50033  0.66713  0.25048  1.0000
  Ga  Ga28      1.0  0.37533  0.91693  0.25039  1.0000
  Ga  Ga29      1.0  0.87542  0.41704  0.25033  1.0000
  Ga  Ga30      1.0  0.75030  0.66699  0.25042  1.0000
  Ga  Ga31      1.0  0.62531  0.91697  0.25038  1.0000
  Ga  Ga32      1.0  0.87532  0.91688  0.25034  1.0000
  O   O1        1.0  0.00036  0.16717  0.41306  1.0000
  O   O2        1.0  0.25040  0.16707  0.41307  1.0000
  O   O3        1.0  0.12540  0.41719  0.41311  1.0000
  O   O4        1.0  0.00046  0.66712  0.41313  1.0000
  O   O5        1.0  0.50038  0.16708  0.41315  1.0000
  O   O6        1.0  0.37534  0.41707  0.41311  1.0000
  O   O7        1.0  0.25033  0.66723  0.41312  1.0000
  O   O8        1.0  0.12543  0.91714  0.41308  1.0000
  O   O9        1.0  0.75031  0.16713  0.41307  1.0000
  O   O10       1.0  0.62536  0.41697  0.41311  1.0000
  O   O11       1.0  0.50024  0.66718  0.41316  1.0000
  O   O12       1.0  0.37531  0.91698  0.41314  1.0000
  O   O13       1.0  0.87548  0.41726  0.41307  1.0000
  O   O14       1.0  0.75025  0.66706  0.41311  1.0000
  O   O15       1.0  0.62535  0.91699  0.41314  1.0000
  O   O16       1.0  0.87538  0.91703  0.41308  1.0000
  O   O17       1.0  0.12548  0.08365  0.91298  1.0000
  O   O18       1.0  0.37545  0.08368  0.91307  1.0000
  O   O19       1.0  0.25038  0.33373  0.91304  1.0000
  O   O20       1.0  0.12542  0.58364  0.91318  1.0000
  O   O21       1.0  0.62527  0.08377  0.91311  1.0000
  O   O22       1.0  0.50043  0.33367  0.91307  1.0000
  O   O23       1.0  0.37539  0.58362  0.91312  1.0000
  O   O24       1.0  0.25041  0.83361  0.91316  1.0000
  O   O25       1.0  0.87535  0.08369  0.91307  1.0000
  O   O26       1.0  0.75037  0.33370  0.91305  1.0000
  O   O27       1.0  0.62541  0.58370  0.91301  1.0000
  O   O28       1.0  0.50026  0.83363  0.91315  1.0000
  O   O29       1.0  0.00040  0.33385  0.91306  1.0000
  O   O30       1.0  0.87538  0.58379  0.91306  1.0000
  O   O31       1.0  0.75021  0.83370  0.91313  1.0000
  O   O32       1.0  0.00036  0.83373  0.91312  1.0000
  O   O33       1.0  0.12536  0.08379  0.58772  1.0000
  O   O34       1.0  0.37539  0.08377  0.58777  1.0000
  O   O35       1.0  0.25033  0.33371  0.58771  1.0000
  O   O36       1.0  0.12542  0.58385  0.58779  1.0000
  O   O37       1.0  0.62548  0.08370  0.58773  1.0000
  O   O38       1.0  0.50030  0.33372  0.58775  1.0000
  O   O39       1.0  0.37539  0.58374  0.58775  1.0000
  O   O40       1.0  0.25030  0.83383  0.58785  1.0000
  O   O41       1.0  0.87534  0.08381  0.58772  1.0000
  O   O42       1.0  0.75045  0.33379  0.58771  1.0000
  O   O43       1.0  0.62530  0.58368  0.58772  1.0000
  O   O44       1.0  0.50031  0.83373  0.58785  1.0000
  O   O45       1.0  0.00032  0.33382  0.58774  1.0000
  O   O46       1.0  0.87535  0.58393  0.58773  1.0000
  O   O47       1.0  0.75034  0.83375  0.58774  1.0000
  O   O48       1.0  0.00031  0.83390  0.58776  1.0000
  O   O49       1.0  0.00042  0.16705  0.08772  1.0000
  O   O50       1.0  0.25041  0.16714  0.08771  1.0000
  O   O51       1.0  0.12544  0.41686  0.08777  1.0000
  O   O52       1.0  0.00029  0.66717  0.08779  1.0000
  O   O53       1.0  0.50032  0.16702  0.08783  1.0000
  O   O54       1.0  0.37552  0.41701  0.08775  1.0000
  O   O55       1.0  0.25029  0.66693  0.08784  1.0000
  O   O56       1.0  0.12540  0.91711  0.08770  1.0000
  O   O57       1.0  0.75042  0.16706  0.08777  1.0000
  O   O58       1.0  0.62539  0.41701  0.08772  1.0000
  O   O59       1.0  0.50040  0.66693  0.08780  1.0000
  O   O60       1.0  0.37538  0.91698  0.08777  1.0000
  O   O61       1.0  0.87541  0.41698  0.08769  1.0000
  O   O62       1.0  0.75035  0.66702  0.08781  1.0000
  O   O63       1.0  0.62532  0.91707  0.08777  1.0000
  O   O64       1.0  0.87531  0.91702  0.08777  1.0000
  O   O65       1.0  0.00033  0.00032  0.25042  1.0000
  O   O66       1.0  0.25039  0.00040  0.25034  1.0000
  O   O67       1.0  0.12534  0.25030  0.25060  1.0000
  O   O68       1.0  0.00043  0.50041  0.25025  1.0000
  O   O69       1.0  0.50032  0.00031  0.25059  1.0000
  O   O70       1.0  0.37534  0.25039  0.25052  1.0000
  O   O71       1.0  0.25042  0.50039  0.25040  1.0000
  O   O72       1.0  0.12534  0.75046  0.25028  1.0000
  O   O73       1.0  0.75034  0.00037  0.25053  1.0000
  O   O74       1.0  0.62531  0.25028  0.25031  1.0000
  O   O75       1.0  0.50044  0.50039  0.25056  1.0000
  O   O76       1.0  0.37534  0.75033  0.25028  1.0000
  O   O77       1.0  0.87535  0.25038  0.25043  1.0000
  O   O78       1.0  0.75037  0.50027  0.25046  1.0000
  O   O79       1.0  0.62532  0.75035  0.25047  1.0000
  O   O80       1.0  0.87531  0.75023  0.25061  1.0000
  O   O81       1.0  0.00032  0.00070  0.75055  1.0000
  O   O82       1.0  0.25038  0.00060  0.75045  1.0000
  O   O83       1.0  0.12530  0.25068  0.75047  1.0000
  O   O84       1.0  0.00033  0.50074  0.75039  1.0000
  O   O85       1.0  0.50033  0.00061  0.75044  1.0000
  O   O86       1.0  0.37533  0.25064  0.75052  1.0000
  O   O87       1.0  0.25033  0.50058  0.75038  1.0000
  O   O88       1.0  0.12531  0.75066  0.75046  1.0000
  O   O89       1.0  0.75028  0.00063  0.75057  1.0000
  O   O90       1.0  0.62537  0.25067  0.75028  1.0000
  O   O91       1.0  0.50032  0.50061  0.75042  1.0000
  O   O92       1.0  0.37533  0.75055  0.75041  1.0000
  O   O93       1.0  0.87535  0.25069  0.75052  1.0000
  O   O94       1.0  0.75043  0.50071  0.75034  1.0000
  O   O95       1.0  0.62531  0.75063  0.75046  1.0000
  O   O96       1.0  0.87532  0.75081  0.75061  1.0000
