data_image0
_chemical_formula_structural       K24Y24O48
_chemical_formula_sum              "K24 Y24 O48"
_cell_length_a       12.5404
_cell_length_b       10.3699
_cell_length_c       11.974
_cell_angle_alpha    90.0003
_cell_angle_beta     99.1569
_cell_angle_gamma    90.002

_space_group_name_H-M_alt    "P 1"
_space_group_IT_number       1

loop_
  _space_group_symop_operation_xyz
  'x, y, z'

loop_
  _atom_site_type_symbol
  _atom_site_label
  _atom_site_symmetry_multiplicity
  _atom_site_fract_x
  _atom_site_fract_y
  _atom_site_fract_z
  _atom_site_occupancy
  K   K1        1.0  0.00047  0.83383  0.75037  1.0000
  K   K2        1.0  0.00036  0.50056  0.75049  1.0000
  K   K3        1.0  0.00057  0.66723  0.50031  1.0000
  K   K4        1.0  0.50034  0.66722  0.75036  1.0000
  K   K5        1.0  0.00053  0.83404  0.25042  1.0000
  K   K6        1.0  0.50059  0.83390  0.50041  1.0000
  K   K7        1.0  0.00037  0.16695  0.75046  1.0000
  K   K8        1.0  0.00064  0.33363  0.50065  1.0000
  K   K9        1.0  0.50032  0.33373  0.75044  1.0000
  K   K10       1.0  0.00038  0.50031  0.25057  1.0000
  K   K11       1.0  0.50050  0.50039  0.50044  1.0000
  K   K12       1.0  0.00042  0.66750  0.00053  1.0000
  K   K13       1.0  0.50033  0.66699  0.25015  1.0000
  K   K14       1.0  0.50044  0.83367  0.00029  1.0000
  K   K15       1.0  0.00052  0.00028  0.50037  1.0000
  K   K16       1.0  0.50055  0.00044  0.75056  1.0000
  K   K17       1.0  0.00064  0.16732  0.25047  1.0000
  K   K18       1.0  0.50058  0.16716  0.50040  1.0000
  K   K19       1.0  0.00039  0.33405  0.00048  1.0000
  K   K20       1.0  0.50052  0.33374  0.25059  1.0000
  K   K21       1.0  0.50053  0.50026  0.00039  1.0000
  K   K22       1.0  0.00044  0.00050  0.00054  1.0000
  K   K23       1.0  0.50055  0.00051  0.25043  1.0000
  K   K24       1.0  0.50053  0.16709  0.00054  1.0000
  Y   Y1        1.0  0.75041  0.83383  0.87541  1.0000
  Y   Y2        1.0  0.75039  0.50045  0.87539  1.0000
  Y   Y3        1.0  0.75046  0.66712  0.62541  1.0000
  Y   Y4        1.0  0.25042  0.66723  0.87534  1.0000
  Y   Y5        1.0  0.75044  0.83374  0.37539  1.0000
  Y   Y6        1.0  0.25051  0.83392  0.62540  1.0000
  Y   Y7        1.0  0.75051  0.16714  0.87543  1.0000
  Y   Y8        1.0  0.75044  0.33372  0.62540  1.0000
  Y   Y9        1.0  0.25041  0.33386  0.87539  1.0000
  Y   Y10       1.0  0.75054  0.50043  0.37542  1.0000
  Y   Y11       1.0  0.25046  0.50058  0.62540  1.0000
  Y   Y12       1.0  0.75049  0.66711  0.12542  1.0000
  Y   Y13       1.0  0.25040  0.66721  0.37536  1.0000
  Y   Y14       1.0  0.25045  0.83385  0.12543  1.0000
  Y   Y15       1.0  0.75050  0.00047  0.62544  1.0000
  Y   Y16       1.0  0.25045  0.00053  0.87543  1.0000
  Y   Y17       1.0  0.75064  0.16708  0.37544  1.0000
  Y   Y18       1.0  0.25054  0.16720  0.62542  1.0000
  Y   Y19       1.0  0.75056  0.33381  0.12543  1.0000
  Y   Y20       1.0  0.25048  0.33389  0.37534  1.0000
  Y   Y21       1.0  0.25034  0.50047  0.12533  1.0000
  Y   Y22       1.0  0.75047  0.00046  0.12543  1.0000
  Y   Y23       1.0  0.25061  0.00055  0.37539  1.0000
  Y   Y24       1.0  0.25051  0.16715  0.12541  1.0000
  O   O1        1.0  0.34350  0.83388  0.80753  1.0000
  O   O2        1.0  0.34347  0.50055  0.80758  1.0000
  O   O3        1.0  0.34345  0.66724  0.55754  1.0000
  O   O4        1.0  0.84340  0.66716  0.80760  1.0000
  O   O5        1.0  0.34353  0.83378  0.30756  1.0000
  O   O6        1.0  0.84344  0.83376  0.55763  1.0000
  O   O7        1.0  0.34354  0.16721  0.80762  1.0000
  O   O8        1.0  0.34348  0.33393  0.55752  1.0000
  O   O9        1.0  0.84347  0.33381  0.80759  1.0000
  O   O10       1.0  0.34336  0.50056  0.30748  1.0000
  O   O11       1.0  0.84346  0.50045  0.55760  1.0000
  O   O12       1.0  0.34341  0.66719  0.05744  1.0000
  O   O13       1.0  0.84356  0.66709  0.30760  1.0000
  O   O14       1.0  0.84349  0.83382  0.05752  1.0000
  O   O15       1.0  0.34362  0.00053  0.55763  1.0000
  O   O16       1.0  0.84345  0.00043  0.80764  1.0000
  O   O17       1.0  0.34361  0.16730  0.30763  1.0000
  O   O18       1.0  0.84355  0.16706  0.55761  1.0000
  O   O19       1.0  0.34348  0.33384  0.05759  1.0000
  O   O20       1.0  0.84355  0.33382  0.30762  1.0000
  O   O21       1.0  0.84352  0.50045  0.05752  1.0000
  O   O22       1.0  0.34359  0.00045  0.05762  1.0000
  O   O23       1.0  0.84360  0.00042  0.30756  1.0000
  O   O24       1.0  0.84355  0.16720  0.05765  1.0000
  O   O25       1.0  0.15744  0.83393  0.94322  1.0000
  O   O26       1.0  0.15732  0.50057  0.94312  1.0000
  O   O27       1.0  0.15744  0.66726  0.69314  1.0000
  O   O28       1.0  0.65741  0.66704  0.94322  1.0000
  O   O29       1.0  0.15747  0.83394  0.44322  1.0000
  O   O30       1.0  0.65737  0.83381  0.69323  1.0000
  O   O31       1.0  0.15745  0.16711  0.94334  1.0000
  O   O32       1.0  0.15744  0.33382  0.69322  1.0000
  O   O33       1.0  0.65749  0.33381  0.94330  1.0000
  O   O34       1.0  0.15741  0.50049  0.44328  1.0000
  O   O35       1.0  0.65737  0.50039  0.69324  1.0000
  O   O36       1.0  0.15730  0.66723  0.19318  1.0000
  O   O37       1.0  0.65743  0.66706  0.44320  1.0000
  O   O38       1.0  0.65749  0.83377  0.19320  1.0000
  O   O39       1.0  0.15745  0.00056  0.69320  1.0000
  O   O40       1.0  0.65742  0.00052  0.94332  1.0000
  O   O41       1.0  0.15749  0.16721  0.44321  1.0000
  O   O42       1.0  0.65749  0.16710  0.69326  1.0000
  O   O43       1.0  0.15741  0.33381  0.19323  1.0000
  O   O44       1.0  0.65750  0.33373  0.44318  1.0000
  O   O45       1.0  0.65751  0.50044  0.19329  1.0000
  O   O46       1.0  0.15756  0.00050  0.19330  1.0000
  O   O47       1.0  0.65752  0.00048  0.44326  1.0000
  O   O48       1.0  0.65754  0.16714  0.19327  1.0000
