data_image0
_chemical_formula_structural       In60Sn4O96
_chemical_formula_sum              "In60 Sn4 O96"
_cell_length_a       10.189
_cell_length_b       14.3942
_cell_length_c       14.4294
_cell_angle_alpha    89.9993
_cell_angle_beta     89.8087
_cell_angle_gamma    89.9998

_space_group_name_H-M_alt    "P 1"
_space_group_IT_number       1

loop_
  _space_group_symop_operation_xyz
  'x, y, z'

loop_
  _atom_site_type_symbol
  _atom_site_label
  _atom_site_symmetry_multiplicity
  _atom_site_fract_x
  _atom_site_fract_y
  _atom_site_fract_z
  _atom_site_occupancy
  In  In1       1.0  0.74979  0.89245  0.10941  1.0000
  In  In2       1.0  0.24962  0.39247  0.10941  1.0000
  In  In3       1.0  0.74962  0.39238  0.60943  1.0000
  In  In4       1.0  0.24960  0.89238  0.60939  1.0000
  In  In5       1.0  0.21707  0.87583  0.37511  1.0000
  In  In6       1.0  0.71700  0.37589  0.37509  1.0000
  In  In7       1.0  0.21702  0.37591  0.87511  1.0000
  In  In8       1.0  0.71706  0.87592  0.87511  1.0000
  In  In9       1.0  0.28356  0.62632  0.12523  1.0000
  In  In10      1.0  0.78356  0.12629  0.12524  1.0000
  In  In11      1.0  0.28351  0.12625  0.62516  1.0000
  In  In12      1.0  0.78337  0.62630  0.62519  1.0000
  In  In13      1.0  0.49930  0.26649  0.01732  1.0000
  In  In14      1.0  0.99933  0.76650  0.01728  1.0000
  In  In15      1.0  0.49926  0.76646  0.51725  1.0000
  In  In16      1.0  0.99928  0.26646  0.51734  1.0000
  In  In17      1.0  0.00142  0.01719  0.26695  1.0000
  In  In18      1.0  0.50134  0.51722  0.26688  1.0000
  In  In19      1.0  0.00128  0.51718  0.76687  1.0000
  In  In20      1.0  0.50138  0.01720  0.76692  1.0000
  In  In21      1.0  0.50057  0.00034  0.00040  1.0000
  In  In22      1.0  0.00044  0.50038  0.00032  1.0000
  In  In23      1.0  0.50042  0.50030  0.50033  1.0000
  In  In24      1.0  0.00047  0.00031  0.50038  1.0000
  In  In25      1.0  0.25021  0.85907  0.14253  1.0000
  In  In26      1.0  0.75011  0.35913  0.14248  1.0000
  In  In27      1.0  0.25009  0.35903  0.64250  1.0000
  In  In28      1.0  0.75007  0.85906  0.64252  1.0000
  In  In29      1.0  0.00042  0.25035  0.25038  1.0000
  In  In30      1.0  0.50051  0.75038  0.25039  1.0000
  In  In31      1.0  0.00043  0.75033  0.75033  1.0000
  In  In32      1.0  0.50042  0.25029  0.75034  1.0000
  In  In33      1.0  0.25077  0.14157  0.35820  1.0000
  In  In34      1.0  0.75078  0.64162  0.35821  1.0000
  In  In35      1.0  0.25076  0.64163  0.85821  1.0000
  In  In36      1.0  0.75081  0.14161  0.85826  1.0000
  In  In37      1.0  0.00052  0.75029  0.25037  1.0000
  In  In38      1.0  0.50045  0.25033  0.25032  1.0000
  In  In39      1.0  0.00050  0.25029  0.75038  1.0000
  In  In40      1.0  0.50043  0.75032  0.75034  1.0000
  In  In41      1.0  0.49966  0.98350  0.23384  1.0000
  In  In42      1.0  0.99953  0.48350  0.23384  1.0000
  In  In43      1.0  0.49952  0.48345  0.73381  1.0000
  In  In44      1.0  0.99959  0.98344  0.73387  1.0000
  In  In45      1.0  0.00155  0.73414  0.48344  1.0000
  In  In46      1.0  0.50159  0.23417  0.48344  1.0000
  In  In47      1.0  0.00158  0.23420  0.98347  1.0000
  In  In48      1.0  0.50163  0.73420  0.98347  1.0000
  In  In49      1.0  0.28391  0.12473  0.12563  1.0000
  In  In50      1.0  0.78389  0.62477  0.12560  1.0000
  In  In51      1.0  0.28383  0.62470  0.62561  1.0000
  In  In52      1.0  0.78389  0.12470  0.62565  1.0000
  In  In53      1.0  0.21734  0.37434  0.37559  1.0000
  In  In54      1.0  0.71745  0.87436  0.37559  1.0000
  In  In55      1.0  0.21742  0.87435  0.87557  1.0000
  In  In56      1.0  0.71733  0.37435  0.87554  1.0000
  In  In57      1.0  0.75128  0.10821  0.39135  1.0000
  In  In58      1.0  0.25121  0.60815  0.39129  1.0000
  In  In59      1.0  0.75118  0.60823  0.89130  1.0000
  In  In60      1.0  0.25128  0.10822  0.89131  1.0000
  Sn  Sn1       1.0  0.00049  0.00035  0.00040  1.0000
  Sn  Sn2       1.0  0.50038  0.50039  0.00032  1.0000
  Sn  Sn3       1.0  0.00038  0.50031  0.50040  1.0000
  Sn  Sn4       1.0  0.50043  0.00030  0.50035  1.0000
  O   O1        1.0  0.91175  0.99699  0.13209  1.0000
  O   O2        1.0  0.41164  0.49703  0.13200  1.0000
  O   O3        1.0  0.91153  0.49698  0.63204  1.0000
  O   O4        1.0  0.41158  0.99694  0.63198  1.0000
  O   O5        1.0  0.09535  0.88619  0.24701  1.0000
  O   O6        1.0  0.59527  0.38620  0.24692  1.0000
  O   O7        1.0  0.09527  0.38618  0.74698  1.0000
  O   O8        1.0  0.59527  0.88617  0.74695  1.0000
  O   O9        1.0  0.63437  0.02279  0.11861  1.0000
  O   O10       1.0  0.13425  0.52285  0.11866  1.0000
  O   O11       1.0  0.63415  0.52275  0.61860  1.0000
  O   O12       1.0  0.13427  0.02275  0.61861  1.0000
  O   O13       1.0  0.12878  0.11226  0.02351  1.0000
  O   O14       1.0  0.62875  0.61229  0.02341  1.0000
  O   O15       1.0  0.12869  0.61223  0.52344  1.0000
  O   O16       1.0  0.62879  0.11222  0.52349  1.0000
  O   O17       1.0  0.63242  0.22957  0.13099  1.0000
  O   O18       1.0  0.13245  0.72958  0.13101  1.0000
  O   O19       1.0  0.63229  0.72954  0.63100  1.0000
  O   O20       1.0  0.13236  0.22951  0.63101  1.0000
  O   O21       1.0  0.13295  0.13327  0.22817  1.0000
  O   O22       1.0  0.63293  0.63328  0.22812  1.0000
  O   O23       1.0  0.13285  0.63327  0.72813  1.0000
  O   O24       1.0  0.63291  0.13323  0.72816  1.0000
  O   O25       1.0  0.40478  0.75379  0.11314  1.0000
  O   O26       1.0  0.90470  0.25380  0.11314  1.0000
  O   O27       1.0  0.40472  0.25373  0.61309  1.0000
  O   O28       1.0  0.90456  0.75376  0.61310  1.0000
  O   O29       1.0  0.59910  0.86428  0.00450  1.0000
  O   O30       1.0  0.09890  0.36432  0.00447  1.0000
  O   O31       1.0  0.59900  0.36427  0.50443  1.0000
  O   O32       1.0  0.09895  0.86422  0.50447  1.0000
  O   O33       1.0  0.13981  0.01910  0.38670  1.0000
  O   O34       1.0  0.63977  0.51914  0.38666  1.0000
  O   O35       1.0  0.13977  0.51911  0.88666  1.0000
  O   O36       1.0  0.63981  0.01909  0.88670  1.0000
  O   O37       1.0  0.13555  0.89176  0.02015  1.0000
  O   O38       1.0  0.63542  0.39179  0.02009  1.0000
  O   O39       1.0  0.13541  0.39174  0.52013  1.0000
  O   O40       1.0  0.63545  0.89174  0.52012  1.0000
  O   O41       1.0  0.35968  0.26937  0.13556  1.0000
  O   O42       1.0  0.85978  0.76935  0.13556  1.0000
  O   O43       1.0  0.35962  0.76928  0.63556  1.0000
  O   O44       1.0  0.85972  0.26932  0.63565  1.0000
  O   O45       1.0  0.36033  0.63510  0.26706  1.0000
  O   O46       1.0  0.86034  0.13510  0.26710  1.0000
  O   O47       1.0  0.36031  0.13502  0.76703  1.0000
  O   O48       1.0  0.86021  0.63504  0.76701  1.0000
  O   O49       1.0  0.14056  0.36563  0.23370  1.0000
  O   O50       1.0  0.64075  0.86558  0.23371  1.0000
  O   O51       1.0  0.14060  0.86555  0.73372  1.0000
  O   O52       1.0  0.64058  0.36558  0.73368  1.0000
  O   O53       1.0  0.36120  0.98154  0.11403  1.0000
  O   O54       1.0  0.86113  0.48157  0.11399  1.0000
  O   O55       1.0  0.36108  0.48150  0.61402  1.0000
  O   O56       1.0  0.86113  0.98151  0.61406  1.0000
  O   O57       1.0  0.14115  0.73127  0.36516  1.0000
  O   O58       1.0  0.64117  0.23129  0.36516  1.0000
  O   O59       1.0  0.14119  0.23131  0.86521  1.0000
  O   O60       1.0  0.64113  0.73133  0.86516  1.0000
  O   O61       1.0  0.36544  0.10887  0.48062  1.0000
  O   O62       1.0  0.86536  0.60890  0.48068  1.0000
  O   O63       1.0  0.36538  0.60895  0.98065  1.0000
  O   O64       1.0  0.86541  0.10893  0.98066  1.0000
  O   O65       1.0  0.09618  0.24689  0.38766  1.0000
  O   O66       1.0  0.59626  0.74694  0.38764  1.0000
  O   O67       1.0  0.09623  0.74691  0.88761  1.0000
  O   O68       1.0  0.59616  0.24688  0.88765  1.0000
  O   O69       1.0  0.90197  0.13636  0.49632  1.0000
  O   O70       1.0  0.40184  0.63634  0.49620  1.0000
  O   O71       1.0  0.90187  0.63642  0.99619  1.0000
  O   O72       1.0  0.40194  0.13636  0.99628  1.0000
  O   O73       1.0  0.86854  0.77114  0.36971  1.0000
  O   O74       1.0  0.36851  0.27111  0.36970  1.0000
  O   O75       1.0  0.86850  0.27111  0.86975  1.0000
  O   O76       1.0  0.36850  0.77112  0.86971  1.0000
  O   O77       1.0  0.36810  0.86746  0.27264  1.0000
  O   O78       1.0  0.86799  0.36751  0.27259  1.0000
  O   O79       1.0  0.36799  0.36739  0.77255  1.0000
  O   O80       1.0  0.86797  0.86742  0.77261  1.0000
  O   O81       1.0  0.86669  0.97785  0.38216  1.0000
  O   O82       1.0  0.36661  0.47785  0.38209  1.0000
  O   O83       1.0  0.86662  0.47786  0.88212  1.0000
  O   O84       1.0  0.36666  0.97784  0.88214  1.0000
  O   O85       1.0  0.37210  0.88840  0.47731  1.0000
  O   O86       1.0  0.87207  0.38838  0.47733  1.0000
  O   O87       1.0  0.37212  0.38844  0.97730  1.0000
  O   O88       1.0  0.87219  0.88844  0.97730  1.0000
  O   O89       1.0  0.40565  0.11444  0.25376  1.0000
  O   O90       1.0  0.90557  0.61446  0.25376  1.0000
  O   O91       1.0  0.40551  0.61443  0.75376  1.0000
  O   O92       1.0  0.90562  0.11440  0.75383  1.0000
  O   O93       1.0  0.58928  0.00369  0.36873  1.0000
  O   O94       1.0  0.08922  0.50366  0.36873  1.0000
  O   O95       1.0  0.58925  0.50370  0.86870  1.0000
  O   O96       1.0  0.08932  0.00368  0.86873  1.0000
