data_image0
_chemical_formula_structural       Rb36Na36O36
_chemical_formula_sum              "Rb36 Na36 O36"
_cell_length_a       12.1347
_cell_length_b       12.135
_cell_length_c       12.9714
_cell_angle_alpha    90.0059
_cell_angle_beta     89.9805
_cell_angle_gamma    90.0051

_space_group_name_H-M_alt    "P 1"
_space_group_IT_number       1

loop_
  _space_group_symop_operation_xyz
  'x, y, z'

loop_
  _atom_site_type_symbol
  _atom_site_label
  _atom_site_symmetry_multiplicity
  _atom_site_fract_x
  _atom_site_fract_y
  _atom_site_fract_z
  _atom_site_occupancy
  Rb  Rb1       1.0  0.08390  0.08371  0.32189  1.0000
  Rb  Rb2       1.0  0.08358  0.08370  0.82191  1.0000
  Rb  Rb3       1.0  0.08363  0.41681  0.32188  1.0000
  Rb  Rb4       1.0  0.08371  0.41682  0.82196  1.0000
  Rb  Rb5       1.0  0.08392  0.75040  0.32223  1.0000
  Rb  Rb6       1.0  0.08388  0.75029  0.82208  1.0000
  Rb  Rb7       1.0  0.41696  0.08387  0.32202  1.0000
  Rb  Rb8       1.0  0.41710  0.08373  0.82201  1.0000
  Rb  Rb9       1.0  0.41722  0.41724  0.32212  1.0000
  Rb  Rb10      1.0  0.41679  0.41723  0.82211  1.0000
  Rb  Rb11      1.0  0.41701  0.75041  0.32227  1.0000
  Rb  Rb12      1.0  0.41689  0.75043  0.82225  1.0000
  Rb  Rb13      1.0  0.75047  0.08381  0.32211  1.0000
  Rb  Rb14      1.0  0.75040  0.08395  0.82220  1.0000
  Rb  Rb15      1.0  0.75036  0.41685  0.32201  1.0000
  Rb  Rb16      1.0  0.75033  0.41714  0.82224  1.0000
  Rb  Rb17      1.0  0.75041  0.75052  0.32238  1.0000
  Rb  Rb18      1.0  0.75045  0.75041  0.82237  1.0000
  Rb  Rb19      1.0  0.25052  0.25041  0.17862  1.0000
  Rb  Rb20      1.0  0.25052  0.25034  0.67846  1.0000
  Rb  Rb21      1.0  0.25044  0.58373  0.17883  1.0000
  Rb  Rb22      1.0  0.25043  0.58364  0.67868  1.0000
  Rb  Rb23      1.0  0.25040  0.91689  0.17871  1.0000
  Rb  Rb24      1.0  0.25050  0.91723  0.67876  1.0000
  Rb  Rb25      1.0  0.58351  0.25033  0.17875  1.0000
  Rb  Rb26      1.0  0.58365  0.25067  0.67878  1.0000
  Rb  Rb27      1.0  0.58378  0.58395  0.17886  1.0000
  Rb  Rb28      1.0  0.58374  0.58387  0.67889  1.0000
  Rb  Rb29      1.0  0.58388  0.91689  0.17900  1.0000
  Rb  Rb30      1.0  0.58389  0.91693  0.67899  1.0000
  Rb  Rb31      1.0  0.91708  0.25023  0.17860  1.0000
  Rb  Rb32      1.0  0.91683  0.25041  0.67866  1.0000
  Rb  Rb33      1.0  0.91687  0.58387  0.17899  1.0000
  Rb  Rb34      1.0  0.91705  0.58381  0.67885  1.0000
  Rb  Rb35      1.0  0.91710  0.91696  0.17887  1.0000
  Rb  Rb36      1.0  0.91695  0.91703  0.67889  1.0000
  Na  Na1       1.0  0.25027  0.08306  0.00013  1.0000
  Na  Na2       1.0  0.25021  0.08307  0.50010  1.0000
  Na  Na3       1.0  0.25029  0.41731  0.00038  1.0000
  Na  Na4       1.0  0.25025  0.41723  0.50019  1.0000
  Na  Na5       1.0  0.25067  0.75051  0.00068  1.0000
  Na  Na6       1.0  0.25034  0.75064  0.50093  1.0000
  Na  Na7       1.0  0.58344  0.08333  0.00054  1.0000
  Na  Na8       1.0  0.58370  0.08338  0.50070  1.0000
  Na  Na9       1.0  0.58313  0.41765  0.00034  1.0000
  Na  Na10      1.0  0.58325  0.41754  0.50034  1.0000
  Na  Na11      1.0  0.58322  0.75022  0.00036  1.0000
  Na  Na12      1.0  0.58316  0.75023  0.50033  1.0000
  Na  Na13      1.0  0.91765  0.08307  0.00025  1.0000
  Na  Na14      1.0  0.91764  0.08295  0.50029  1.0000
  Na  Na15      1.0  0.91765  0.41747  0.00040  1.0000
  Na  Na16      1.0  0.91754  0.41765  0.50023  1.0000
  Na  Na17      1.0  0.91729  0.75032  0.00032  1.0000
  Na  Na18      1.0  0.91720  0.75025  0.50031  1.0000
  Na  Na19      1.0  0.08331  0.25030  0.00006  1.0000
  Na  Na20      1.0  0.08306  0.25028  0.50014  1.0000
  Na  Na21      1.0  0.08338  0.58354  0.00061  1.0000
  Na  Na22      1.0  0.08321  0.58330  0.50034  1.0000
  Na  Na23      1.0  0.08321  0.91752  0.00021  1.0000
  Na  Na24      1.0  0.08302  0.91752  0.50026  1.0000
  Na  Na25      1.0  0.41731  0.25029  0.00018  1.0000
  Na  Na26      1.0  0.41731  0.25029  0.50028  1.0000
  Na  Na27      1.0  0.41758  0.58316  0.00044  1.0000
  Na  Na28      1.0  0.41760  0.58328  0.50030  1.0000
  Na  Na29      1.0  0.41767  0.91757  0.00041  1.0000
  Na  Na30      1.0  0.41754  0.91760  0.50031  1.0000
  Na  Na31      1.0  0.75051  0.25051  0.00093  1.0000
  Na  Na32      1.0  0.75079  0.25044  0.50059  1.0000
  Na  Na33      1.0  0.75029  0.58321  0.00038  1.0000
  Na  Na34      1.0  0.75012  0.58322  0.50033  1.0000
  Na  Na35      1.0  0.75032  0.91723  0.00042  1.0000
  Na  Na36      1.0  0.75033  0.91725  0.50034  1.0000
  O   O1        1.0  0.25040  0.25031  0.40390  1.0000
  O   O2        1.0  0.25046  0.25038  0.90371  1.0000
  O   O3        1.0  0.25042  0.58379  0.40381  1.0000
  O   O4        1.0  0.25055  0.58378  0.90394  1.0000
  O   O5        1.0  0.25035  0.91711  0.40381  1.0000
  O   O6        1.0  0.25061  0.91699  0.90390  1.0000
  O   O7        1.0  0.58390  0.25032  0.40394  1.0000
  O   O8        1.0  0.58380  0.25049  0.90393  1.0000
  O   O9        1.0  0.58362  0.58374  0.40387  1.0000
  O   O10       1.0  0.58373  0.58375  0.90397  1.0000
  O   O11       1.0  0.58383  0.91710  0.40386  1.0000
  O   O12       1.0  0.58387  0.91701  0.90395  1.0000
  O   O13       1.0  0.91715  0.25030  0.40376  1.0000
  O   O14       1.0  0.91715  0.25037  0.90388  1.0000
  O   O15       1.0  0.91701  0.58371  0.40375  1.0000
  O   O16       1.0  0.91713  0.58381  0.90392  1.0000
  O   O17       1.0  0.91709  0.91699  0.40373  1.0000
  O   O18       1.0  0.91716  0.91707  0.90381  1.0000
  O   O19       1.0  0.08375  0.08367  0.09698  1.0000
  O   O20       1.0  0.08363  0.08366  0.59701  1.0000
  O   O21       1.0  0.08377  0.41704  0.09694  1.0000
  O   O22       1.0  0.08359  0.41718  0.59698  1.0000
  O   O23       1.0  0.08375  0.75055  0.09701  1.0000
  O   O24       1.0  0.08352  0.75039  0.59693  1.0000
  O   O25       1.0  0.41705  0.08379  0.09697  1.0000
  O   O26       1.0  0.41706  0.08372  0.59709  1.0000
  O   O27       1.0  0.41704  0.41704  0.09706  1.0000
  O   O28       1.0  0.41702  0.41718  0.59699  1.0000
  O   O29       1.0  0.41717  0.75035  0.09710  1.0000
  O   O30       1.0  0.41694  0.75047  0.59708  1.0000
  O   O31       1.0  0.75047  0.08367  0.09705  1.0000
  O   O32       1.0  0.75058  0.08366  0.59708  1.0000
  O   O33       1.0  0.75044  0.41713  0.09705  1.0000
  O   O34       1.0  0.75036  0.41718  0.59699  1.0000
  O   O35       1.0  0.75041  0.75039  0.09702  1.0000
  O   O36       1.0  0.75023  0.75042  0.59697  1.0000
