data_image0
_chemical_formula_structural       Na36Hf36O90
_chemical_formula_sum              "Na36 Hf36 O90"
_cell_length_a       15.8808
_cell_length_b       11.8514
_cell_length_c       11.8516
_cell_angle_alpha    90.0014
_cell_angle_beta     89.9902
_cell_angle_gamma    89.9996

_space_group_name_H-M_alt    "P 1"
_space_group_IT_number       1

loop_
  _space_group_symop_operation_xyz
  'x, y, z'

loop_
  _atom_site_type_symbol
  _atom_site_label
  _atom_site_symmetry_multiplicity
  _atom_site_fract_x
  _atom_site_fract_y
  _atom_site_fract_z
  _atom_site_occupancy
  Na  Na1       1.0  0.00094  0.00147  0.00054  1.0000
  Na  Na2       1.0  0.00025  0.00050  0.33419  1.0000
  Na  Na3       1.0  0.00102  0.00062  0.66631  1.0000
  Na  Na4       1.0  0.00077  0.33407  0.00075  1.0000
  Na  Na5       1.0  0.00005  0.33405  0.33410  1.0000
  Na  Na6       1.0  0.00031  0.33415  0.66640  1.0000
  Na  Na7       1.0  0.00046  0.66629  0.00090  1.0000
  Na  Na8       1.0  0.00013  0.66633  0.33410  1.0000
  Na  Na9       1.0  0.00024  0.66624  0.66625  1.0000
  Na  Na10      1.0  0.50110  0.00124  0.00110  1.0000
  Na  Na11      1.0  0.50050  0.00078  0.33410  1.0000
  Na  Na12      1.0  0.50097  0.00045  0.66643  1.0000
  Na  Na13      1.0  0.50034  0.33413  0.00089  1.0000
  Na  Na14      1.0  0.50002  0.33413  0.33407  1.0000
  Na  Na15      1.0  0.50020  0.33411  0.66627  1.0000
  Na  Na16      1.0  0.50107  0.66636  0.00056  1.0000
  Na  Na17      1.0  0.50022  0.66629  0.33410  1.0000
  Na  Na18      1.0  0.50017  0.66623  0.66623  1.0000
  Na  Na19      1.0  0.25004  0.00209  0.00224  1.0000
  Na  Na20      1.0  0.25016  0.00099  0.33429  1.0000
  Na  Na21      1.0  0.25058  0.00092  0.66584  1.0000
  Na  Na22      1.0  0.25086  0.33430  0.00034  1.0000
  Na  Na23      1.0  0.25012  0.33365  0.33347  1.0000
  Na  Na24      1.0  0.25014  0.33390  0.66684  1.0000
  Na  Na25      1.0  0.25092  0.66588  0.00042  1.0000
  Na  Na26      1.0  0.25002  0.66683  0.33392  1.0000
  Na  Na27      1.0  0.24993  0.66661  0.66652  1.0000
  Na  Na28      1.0  0.75045  0.00268  0.00015  1.0000
  Na  Na29      1.0  0.74993  0.00107  0.33438  1.0000
  Na  Na30      1.0  0.75043  0.00057  0.66575  1.0000
  Na  Na31      1.0  0.75055  0.33428  0.00137  1.0000
  Na  Na32      1.0  0.75004  0.33356  0.33357  1.0000
  Na  Na33      1.0  0.75012  0.33382  0.66672  1.0000
  Na  Na34      1.0  0.75117  0.66599  0.00047  1.0000
  Na  Na35      1.0  0.74999  0.66681  0.33395  1.0000
  Na  Na36      1.0  0.75003  0.66629  0.66666  1.0000
  Hf  Hf1       1.0  0.12610  0.16718  0.16717  1.0000
  Hf  Hf2       1.0  0.12616  0.16710  0.50043  1.0000
  Hf  Hf3       1.0  0.12618  0.16714  0.83376  1.0000
  Hf  Hf4       1.0  0.12610  0.50038  0.16724  1.0000
  Hf  Hf5       1.0  0.12619  0.50034  0.50045  1.0000
  Hf  Hf6       1.0  0.12611  0.50051  0.83382  1.0000
  Hf  Hf7       1.0  0.12610  0.83376  0.16711  1.0000
  Hf  Hf8       1.0  0.12609  0.83373  0.50048  1.0000
  Hf  Hf9       1.0  0.12614  0.83381  0.83393  1.0000
  Hf  Hf10      1.0  0.62608  0.16713  0.16708  1.0000
  Hf  Hf11      1.0  0.62616  0.16714  0.50049  1.0000
  Hf  Hf12      1.0  0.62612  0.16713  0.83364  1.0000
  Hf  Hf13      1.0  0.62608  0.50036  0.16711  1.0000
  Hf  Hf14      1.0  0.62612  0.50036  0.50040  1.0000
  Hf  Hf15      1.0  0.62609  0.50035  0.83375  1.0000
  Hf  Hf16      1.0  0.62610  0.83377  0.16704  1.0000
  Hf  Hf17      1.0  0.62602  0.83359  0.50041  1.0000
  Hf  Hf18      1.0  0.62610  0.83363  0.83379  1.0000
  Hf  Hf19      1.0  0.37454  0.16708  0.16707  1.0000
  Hf  Hf20      1.0  0.37452  0.16706  0.50036  1.0000
  Hf  Hf21      1.0  0.37455  0.16704  0.83373  1.0000
  Hf  Hf22      1.0  0.37447  0.50046  0.16720  1.0000
  Hf  Hf23      1.0  0.37447  0.50041  0.50044  1.0000
  Hf  Hf24      1.0  0.37452  0.50051  0.83371  1.0000
  Hf  Hf25      1.0  0.37447  0.83374  0.16706  1.0000
  Hf  Hf26      1.0  0.37448  0.83372  0.50046  1.0000
  Hf  Hf27      1.0  0.37449  0.83387  0.83388  1.0000
  Hf  Hf28      1.0  0.87453  0.16700  0.16705  1.0000
  Hf  Hf29      1.0  0.87452  0.16710  0.50043  1.0000
  Hf  Hf30      1.0  0.87453  0.16705  0.83360  1.0000
  Hf  Hf31      1.0  0.87444  0.50035  0.16714  1.0000
  Hf  Hf32      1.0  0.87445  0.50037  0.50038  1.0000
  Hf  Hf33      1.0  0.87450  0.50033  0.83366  1.0000
  Hf  Hf34      1.0  0.87443  0.83380  0.16701  1.0000
  Hf  Hf35      1.0  0.87443  0.83358  0.50036  1.0000
  Hf  Hf36      1.0  0.87446  0.83369  0.83367  1.0000
  O   O1        1.0  0.10026  0.16722  0.00051  1.0000
  O   O2        1.0  0.10034  0.16707  0.33385  1.0000
  O   O3        1.0  0.10041  0.16719  0.66705  1.0000
  O   O4        1.0  0.10020  0.50032  0.00057  1.0000
  O   O5        1.0  0.10018  0.50034  0.33389  1.0000
  O   O6        1.0  0.10034  0.50044  0.66708  1.0000
  O   O7        1.0  0.10000  0.83374  0.00056  1.0000
  O   O8        1.0  0.10014  0.83385  0.33383  1.0000
  O   O9        1.0  0.10023  0.83384  0.66713  1.0000
  O   O10       1.0  0.60044  0.16708  0.00038  1.0000
  O   O11       1.0  0.60053  0.16714  0.33385  1.0000
  O   O12       1.0  0.60007  0.16718  0.66700  1.0000
  O   O13       1.0  0.60021  0.50029  0.00049  1.0000
  O   O14       1.0  0.60033  0.50031  0.33378  1.0000
  O   O15       1.0  0.60033  0.50037  0.66701  1.0000
  O   O16       1.0  0.60010  0.83367  0.00047  1.0000
  O   O17       1.0  0.60003  0.83379  0.33378  1.0000
  O   O18       1.0  0.60009  0.83367  0.66703  1.0000
  O   O19       1.0  0.40055  0.16721  0.00049  1.0000
  O   O20       1.0  0.40052  0.16718  0.33372  1.0000
  O   O21       1.0  0.40024  0.16701  0.66697  1.0000
  O   O22       1.0  0.40017  0.50043  0.00048  1.0000
  O   O23       1.0  0.40054  0.50034  0.33383  1.0000
  O   O24       1.0  0.40048  0.50032  0.66698  1.0000
  O   O25       1.0  0.40054  0.83363  0.00049  1.0000
  O   O26       1.0  0.40033  0.83370  0.33381  1.0000
  O   O27       1.0  0.40035  0.83386  0.66706  1.0000
  O   O28       1.0  0.90042  0.16700  0.00038  1.0000
  O   O29       1.0  0.90045  0.16705  0.33376  1.0000
  O   O30       1.0  0.90066  0.16702  0.66694  1.0000
  O   O31       1.0  0.90018  0.50034  0.00042  1.0000
  O   O32       1.0  0.90045  0.50023  0.33374  1.0000
  O   O33       1.0  0.90050  0.50031  0.66697  1.0000
  O   O34       1.0  0.90024  0.83342  0.00037  1.0000
  O   O35       1.0  0.90038  0.83370  0.33374  1.0000
  O   O36       1.0  0.90037  0.83365  0.66691  1.0000
  O   O37       1.0  0.25031  0.16704  0.16691  1.0000
  O   O38       1.0  0.25035  0.16678  0.50030  1.0000
  O   O39       1.0  0.25035  0.16720  0.83393  1.0000
  O   O40       1.0  0.25025  0.50025  0.16736  1.0000
  O   O41       1.0  0.25032  0.50041  0.50048  1.0000
  O   O42       1.0  0.25030  0.50058  0.83394  1.0000
  O   O43       1.0  0.25025  0.83398  0.16714  1.0000
  O   O44       1.0  0.25026  0.83392  0.50046  1.0000
  O   O45       1.0  0.25027  0.83374  0.83384  1.0000
  O   O46       1.0  0.75031  0.16707  0.16692  1.0000
  O   O47       1.0  0.75032  0.16722  0.50064  1.0000
  O   O48       1.0  0.75033  0.16705  0.83364  1.0000
  O   O49       1.0  0.75026  0.50007  0.16702  1.0000
  O   O50       1.0  0.75028  0.50065  0.50062  1.0000
  O   O51       1.0  0.75029  0.50047  0.83369  1.0000
  O   O52       1.0  0.75026  0.83385  0.16739  1.0000
  O   O53       1.0  0.75021  0.83335  0.50039  1.0000
  O   O54       1.0  0.75027  0.83336  0.83354  1.0000
  O   O55       1.0  0.10026  0.00053  0.16707  1.0000
  O   O56       1.0  0.10019  0.00048  0.50052  1.0000
  O   O57       1.0  0.10011  0.00055  0.83389  1.0000
  O   O58       1.0  0.09998  0.33379  0.16732  1.0000
  O   O59       1.0  0.10020  0.33377  0.50047  1.0000
  O   O60       1.0  0.10013  0.33384  0.83372  1.0000
  O   O61       1.0  0.10024  0.66697  0.16731  1.0000
  O   O62       1.0  0.10036  0.66699  0.50045  1.0000
  O   O63       1.0  0.10014  0.66705  0.83376  1.0000
  O   O64       1.0  0.60006  0.00052  0.16712  1.0000
  O   O65       1.0  0.60054  0.00043  0.50045  1.0000
  O   O66       1.0  0.60028  0.00046  0.83372  1.0000
  O   O67       1.0  0.59997  0.33373  0.16718  1.0000
  O   O68       1.0  0.60013  0.33375  0.50047  1.0000
  O   O69       1.0  0.60008  0.33374  0.83371  1.0000
  O   O70       1.0  0.60034  0.66698  0.16723  1.0000
  O   O71       1.0  0.60003  0.66693  0.50035  1.0000
  O   O72       1.0  0.60004  0.66689  0.83371  1.0000
  O   O73       1.0  0.40027  0.00043  0.16708  1.0000
  O   O74       1.0  0.40048  0.00045  0.50033  1.0000
  O   O75       1.0  0.40047  0.00050  0.83378  1.0000
  O   O76       1.0  0.40025  0.33382  0.16714  1.0000
  O   O77       1.0  0.40033  0.33375  0.50048  1.0000
  O   O78       1.0  0.40033  0.33382  0.83372  1.0000
  O   O79       1.0  0.40032  0.66701  0.16713  1.0000
  O   O80       1.0  0.40037  0.66699  0.50043  1.0000
  O   O81       1.0  0.40038  0.66706  0.83363  1.0000
  O   O82       1.0  0.90054  0.00041  0.16699  1.0000
  O   O83       1.0  0.90010  0.00037  0.50040  1.0000
  O   O84       1.0  0.90030  0.00041  0.83380  1.0000
  O   O85       1.0  0.90034  0.33370  0.16701  1.0000
  O   O86       1.0  0.90037  0.33375  0.50039  1.0000
  O   O87       1.0  0.90043  0.33371  0.83366  1.0000
  O   O88       1.0  0.90026  0.66695  0.16716  1.0000
  O   O89       1.0  0.90059  0.66692  0.50033  1.0000
  O   O90       1.0  0.90042  0.66690  0.83366  1.0000
