data_image0
_chemical_formula_structural       Cs32Sn16O48
_chemical_formula_sum              "Cs32 Sn16 O48"
_cell_length_a       15.606
_cell_length_b       11.2956
_cell_length_c       11.6805
_cell_angle_alpha    90
_cell_angle_beta     90
_cell_angle_gamma    90

_space_group_name_H-M_alt    "P 1"
_space_group_IT_number       1

loop_
  _space_group_symop_operation_xyz
  'x, y, z'

loop_
  _atom_site_type_symbol
  _atom_site_label
  _atom_site_symmetry_multiplicity
  _atom_site_fract_x
  _atom_site_fract_y
  _atom_site_fract_z
  _atom_site_occupancy
  Cs  Cs1       1.0  0.17756  0.83893  0.37537  1.0000
  Cs  Cs2       1.0  0.17743  0.83892  0.87539  1.0000
  Cs  Cs3       1.0  0.42749  0.33867  0.37540  1.0000
  Cs  Cs4       1.0  0.42763  0.33908  0.87557  1.0000
  Cs  Cs5       1.0  0.67747  0.83863  0.37549  1.0000
  Cs  Cs6       1.0  0.67738  0.83877  0.87540  1.0000
  Cs  Cs7       1.0  0.92752  0.33885  0.37511  1.0000
  Cs  Cs8       1.0  0.92739  0.33906  0.87546  1.0000
  Cs  Cs9       1.0  0.32338  0.83882  0.12544  1.0000
  Cs  Cs10      1.0  0.32328  0.83892  0.62558  1.0000
  Cs  Cs11      1.0  0.57319  0.33898  0.12543  1.0000
  Cs  Cs12      1.0  0.57316  0.33882  0.62565  1.0000
  Cs  Cs13      1.0  0.82312  0.83895  0.12551  1.0000
  Cs  Cs14      1.0  0.82298  0.83884  0.62535  1.0000
  Cs  Cs15      1.0  0.07341  0.33866  0.12521  1.0000
  Cs  Cs16      1.0  0.07318  0.33890  0.62545  1.0000
  Cs  Cs17      1.0  0.32332  0.16235  0.12524  1.0000
  Cs  Cs18      1.0  0.32328  0.16208  0.62524  1.0000
  Cs  Cs19      1.0  0.57308  0.66223  0.12525  1.0000
  Cs  Cs20      1.0  0.57327  0.66226  0.62558  1.0000
  Cs  Cs21      1.0  0.82311  0.16218  0.12555  1.0000
  Cs  Cs22      1.0  0.82335  0.16196  0.62541  1.0000
  Cs  Cs23      1.0  0.07316  0.66210  0.12555  1.0000
  Cs  Cs24      1.0  0.07312  0.66231  0.62540  1.0000
  Cs  Cs25      1.0  0.17750  0.16202  0.37543  1.0000
  Cs  Cs26      1.0  0.17765  0.16219  0.87523  1.0000
  Cs  Cs27      1.0  0.42759  0.66194  0.37568  1.0000
  Cs  Cs28      1.0  0.42755  0.66227  0.87523  1.0000
  Cs  Cs29      1.0  0.67748  0.16218  0.37569  1.0000
  Cs  Cs30      1.0  0.67765  0.16211  0.87554  1.0000
  Cs  Cs31      1.0  0.92749  0.66222  0.37531  1.0000
  Cs  Cs32      1.0  0.92752  0.66235  0.87524  1.0000
  Sn  Sn1       1.0  0.04187  0.00058  0.12547  1.0000
  Sn  Sn2       1.0  0.04177  0.00042  0.62549  1.0000
  Sn  Sn3       1.0  0.29189  0.50061  0.12540  1.0000
  Sn  Sn4       1.0  0.29196  0.50037  0.62540  1.0000
  Sn  Sn5       1.0  0.54194  0.00057  0.12547  1.0000
  Sn  Sn6       1.0  0.54185  0.00043  0.62547  1.0000
  Sn  Sn7       1.0  0.79188  0.50041  0.12549  1.0000
  Sn  Sn8       1.0  0.79188  0.50050  0.62538  1.0000
  Sn  Sn9       1.0  0.45881  0.00041  0.37542  1.0000
  Sn  Sn10      1.0  0.45875  0.00051  0.87547  1.0000
  Sn  Sn11      1.0  0.70875  0.50046  0.37546  1.0000
  Sn  Sn12      1.0  0.70877  0.50043  0.87544  1.0000
  Sn  Sn13      1.0  0.95872  0.00060  0.37547  1.0000
  Sn  Sn14      1.0  0.95867  0.00044  0.87552  1.0000
  Sn  Sn15      1.0  0.20881  0.50041  0.37539  1.0000
  Sn  Sn16      1.0  0.20881  0.50054  0.87539  1.0000
  O   O1        1.0  0.25035  0.61878  0.00034  1.0000
  O   O2        1.0  0.25039  0.61855  0.50043  1.0000
  O   O3        1.0  0.50026  0.11868  0.00047  1.0000
  O   O4        1.0  0.50035  0.11855  0.50044  1.0000
  O   O5        1.0  0.75039  0.61856  0.00051  1.0000
  O   O6        1.0  0.75011  0.61867  0.50047  1.0000
  O   O7        1.0  0.00022  0.11861  0.00047  1.0000
  O   O8        1.0  0.00019  0.11871  0.50060  1.0000
  O   O9        1.0  0.25049  0.61869  0.25053  1.0000
  O   O10       1.0  0.25044  0.61857  0.75038  1.0000
  O   O11       1.0  0.50037  0.11863  0.25049  1.0000
  O   O12       1.0  0.50023  0.11863  0.75042  1.0000
  O   O13       1.0  0.75044  0.61865  0.25053  1.0000
  O   O14       1.0  0.75029  0.61862  0.75045  1.0000
  O   O15       1.0  0.00041  0.11873  0.25050  1.0000
  O   O16       1.0  0.00042  0.11858  0.75065  1.0000
  O   O17       1.0  0.33357  0.00025  0.37564  1.0000
  O   O18       1.0  0.33350  0.00063  0.87535  1.0000
  O   O19       1.0  0.58352  0.50042  0.37541  1.0000
  O   O20       1.0  0.58351  0.50038  0.87561  1.0000
  O   O21       1.0  0.83347  0.00042  0.37552  1.0000
  O   O22       1.0  0.83339  0.00042  0.87520  1.0000
  O   O23       1.0  0.08358  0.50030  0.37514  1.0000
  O   O24       1.0  0.08357  0.50046  0.87523  1.0000
  O   O25       1.0  0.16712  0.00076  0.12516  1.0000
  O   O26       1.0  0.16703  0.00013  0.62532  1.0000
  O   O27       1.0  0.41713  0.50052  0.12513  1.0000
  O   O28       1.0  0.41722  0.50023  0.62555  1.0000
  O   O29       1.0  0.66719  0.00077  0.12513  1.0000
  O   O30       1.0  0.66711  0.00031  0.62543  1.0000
  O   O31       1.0  0.91714  0.50026  0.12552  1.0000
  O   O32       1.0  0.91713  0.50060  0.62536  1.0000
  O   O33       1.0  0.25035  0.38248  0.00044  1.0000
  O   O34       1.0  0.25042  0.38222  0.50036  1.0000
  O   O35       1.0  0.50049  0.88246  0.00042  1.0000
  O   O36       1.0  0.50033  0.88232  0.50044  1.0000
  O   O37       1.0  0.75029  0.38237  0.00047  1.0000
  O   O38       1.0  0.75048  0.38236  0.50037  1.0000
  O   O39       1.0  0.00022  0.88241  0.00059  1.0000
  O   O40       1.0  0.00016  0.88241  0.50046  1.0000
  O   O41       1.0  0.25041  0.38236  0.25038  1.0000
  O   O42       1.0  0.25052  0.38238  0.75052  1.0000
  O   O43       1.0  0.50046  0.88237  0.25050  1.0000
  O   O44       1.0  0.50033  0.88230  0.75046  1.0000
  O   O45       1.0  0.75023  0.38233  0.25047  1.0000
  O   O46       1.0  0.75044  0.38234  0.75039  1.0000
  O   O47       1.0  0.00043  0.88253  0.25056  1.0000
  O   O48       1.0  0.00023  0.88230  0.75051  1.0000
