data_image0
_chemical_formula_structural       Ta24In24O96
_chemical_formula_sum              "Ta24 In24 O96"
_cell_length_a       14.5263
_cell_length_b       10.3545
_cell_length_c       11.6142
_cell_angle_alpha    90
_cell_angle_beta     90
_cell_angle_gamma    91.2745

_space_group_name_H-M_alt    "P 1"
_space_group_IT_number       1

loop_
  _space_group_symop_operation_xyz
  'x, y, z'

loop_
  _atom_site_type_symbol
  _atom_site_label
  _atom_site_symmetry_multiplicity
  _atom_site_fract_x
  _atom_site_fract_y
  _atom_site_fract_z
  _atom_site_occupancy
  Ta  Ta1       1.0  0.00038  0.12545  0.41402  1.0000
  Ta  Ta2       1.0  0.00036  0.12545  0.91402  1.0000
  Ta  Ta3       1.0  0.00040  0.62544  0.41401  1.0000
  Ta  Ta4       1.0  0.00023  0.62539  0.91403  1.0000
  Ta  Ta5       1.0  0.33371  0.12539  0.41410  1.0000
  Ta  Ta6       1.0  0.33364  0.12552  0.91395  1.0000
  Ta  Ta7       1.0  0.33368  0.62549  0.41392  1.0000
  Ta  Ta8       1.0  0.33359  0.62553  0.91397  1.0000
  Ta  Ta9       1.0  0.66693  0.12543  0.41398  1.0000
  Ta  Ta10      1.0  0.66699  0.12548  0.91395  1.0000
  Ta  Ta11      1.0  0.66695  0.62548  0.41396  1.0000
  Ta  Ta12      1.0  0.66703  0.62550  0.91395  1.0000
  Ta  Ta13      1.0  0.00032  0.37546  0.08696  1.0000
  Ta  Ta14      1.0  0.00027  0.37544  0.58691  1.0000
  Ta  Ta15      1.0  0.00031  0.87547  0.08692  1.0000
  Ta  Ta16      1.0  0.00030  0.87546  0.58691  1.0000
  Ta  Ta17      1.0  0.33368  0.37556  0.08684  1.0000
  Ta  Ta18      1.0  0.33366  0.37549  0.58695  1.0000
  Ta  Ta19      1.0  0.33372  0.87549  0.08692  1.0000
  Ta  Ta20      1.0  0.33369  0.87533  0.58701  1.0000
  Ta  Ta21      1.0  0.66699  0.37550  0.08692  1.0000
  Ta  Ta22      1.0  0.66696  0.37549  0.58684  1.0000
  Ta  Ta23      1.0  0.66699  0.87551  0.08691  1.0000
  Ta  Ta24      1.0  0.66703  0.87542  0.58692  1.0000
  In  In1       1.0  0.16709  0.12556  0.16217  1.0000
  In  In2       1.0  0.16702  0.12539  0.66211  1.0000
  In  In3       1.0  0.16697  0.62547  0.16211  1.0000
  In  In4       1.0  0.16697  0.62542  0.66218  1.0000
  In  In5       1.0  0.50033  0.12553  0.16203  1.0000
  In  In6       1.0  0.50045  0.12553  0.66216  1.0000
  In  In7       1.0  0.50039  0.62549  0.16207  1.0000
  In  In8       1.0  0.50034  0.62548  0.66220  1.0000
  In  In9       1.0  0.83366  0.12550  0.16212  1.0000
  In  In10      1.0  0.83367  0.12552  0.66205  1.0000
  In  In11      1.0  0.83366  0.62551  0.16228  1.0000
  In  In12      1.0  0.83368  0.62541  0.66215  1.0000
  In  In13      1.0  0.16707  0.37544  0.33881  1.0000
  In  In14      1.0  0.16692  0.37543  0.83875  1.0000
  In  In15      1.0  0.16702  0.87550  0.33877  1.0000
  In  In16      1.0  0.16692  0.87542  0.83879  1.0000
  In  In17      1.0  0.50027  0.37545  0.33870  1.0000
  In  In18      1.0  0.50038  0.37557  0.83884  1.0000
  In  In19      1.0  0.50039  0.87549  0.33876  1.0000
  In  In20      1.0  0.50033  0.87550  0.83876  1.0000
  In  In21      1.0  0.83361  0.37536  0.33883  1.0000
  In  In22      1.0  0.83363  0.37534  0.83883  1.0000
  In  In23      1.0  0.83373  0.87558  0.33875  1.0000
  In  In24      1.0  0.83369  0.87554  0.83873  1.0000
  O   O1        1.0  0.08699  0.20076  0.31047  1.0000
  O   O2        1.0  0.08709  0.20057  0.81051  1.0000
  O   O3        1.0  0.08704  0.70076  0.31053  1.0000
  O   O4        1.0  0.08696  0.70063  0.81061  1.0000
  O   O5        1.0  0.42027  0.20069  0.31048  1.0000
  O   O6        1.0  0.42047  0.20077  0.81064  1.0000
  O   O7        1.0  0.42037  0.70078  0.31052  1.0000
  O   O8        1.0  0.42025  0.70086  0.81050  1.0000
  O   O9        1.0  0.75359  0.20071  0.31050  1.0000
  O   O10       1.0  0.75361  0.20076  0.81043  1.0000
  O   O11       1.0  0.75352  0.70100  0.31049  1.0000
  O   O12       1.0  0.75372  0.70081  0.81053  1.0000
  O   O13       1.0  0.24695  0.05025  0.31062  1.0000
  O   O14       1.0  0.24696  0.05014  0.81053  1.0000
  O   O15       1.0  0.24704  0.55015  0.31043  1.0000
  O   O16       1.0  0.24700  0.55009  0.81046  1.0000
  O   O17       1.0  0.58038  0.05017  0.31036  1.0000
  O   O18       1.0  0.58042  0.05013  0.81041  1.0000
  O   O19       1.0  0.58028  0.55019  0.31045  1.0000
  O   O20       1.0  0.58036  0.55024  0.81042  1.0000
  O   O21       1.0  0.91370  0.05028  0.31046  1.0000
  O   O22       1.0  0.91361  0.05025  0.81061  1.0000
  O   O23       1.0  0.91361  0.55020  0.31065  1.0000
  O   O24       1.0  0.91359  0.55013  0.81050  1.0000
  O   O25       1.0  0.24706  0.30028  0.19040  1.0000
  O   O26       1.0  0.24706  0.30007  0.69049  1.0000
  O   O27       1.0  0.24710  0.80009  0.19040  1.0000
  O   O28       1.0  0.24703  0.80005  0.69057  1.0000
  O   O29       1.0  0.58034  0.30014  0.19041  1.0000
  O   O30       1.0  0.58037  0.30022  0.69042  1.0000
  O   O31       1.0  0.58030  0.80022  0.19038  1.0000
  O   O32       1.0  0.58045  0.80013  0.69055  1.0000
  O   O33       1.0  0.91364  0.30021  0.19045  1.0000
  O   O34       1.0  0.91378  0.30006  0.69053  1.0000
  O   O35       1.0  0.91365  0.80019  0.19046  1.0000
  O   O36       1.0  0.91368  0.80017  0.69040  1.0000
  O   O37       1.0  0.08696  0.45079  0.19044  1.0000
  O   O38       1.0  0.08689  0.45072  0.69046  1.0000
  O   O39       1.0  0.08708  0.95072  0.19030  1.0000
  O   O40       1.0  0.08692  0.95072  0.69046  1.0000
  O   O41       1.0  0.42039  0.45084  0.19028  1.0000
  O   O42       1.0  0.42035  0.45073  0.69039  1.0000
  O   O43       1.0  0.42037  0.95083  0.19037  1.0000
  O   O44       1.0  0.42038  0.95079  0.69034  1.0000
  O   O45       1.0  0.75352  0.45088  0.19048  1.0000
  O   O46       1.0  0.75369  0.45066  0.69033  1.0000
  O   O47       1.0  0.75364  0.95086  0.19035  1.0000
  O   O48       1.0  0.75374  0.95072  0.69032  1.0000
  O   O49       1.0  0.07181  0.21845  0.05208  1.0000
  O   O50       1.0  0.07180  0.21841  0.55196  1.0000
  O   O51       1.0  0.07162  0.71832  0.05213  1.0000
  O   O52       1.0  0.07174  0.71839  0.55208  1.0000
  O   O53       1.0  0.40511  0.21852  0.05203  1.0000
  O   O54       1.0  0.40512  0.21841  0.55202  1.0000
  O   O55       1.0  0.40509  0.71843  0.05198  1.0000
  O   O56       1.0  0.40508  0.71833  0.55211  1.0000
  O   O57       1.0  0.73847  0.21855  0.05191  1.0000
  O   O58       1.0  0.73840  0.21839  0.55195  1.0000
  O   O59       1.0  0.73837  0.71837  0.05207  1.0000
  O   O60       1.0  0.73849  0.71839  0.55198  1.0000
  O   O61       1.0  0.26232  0.03260  0.05207  1.0000
  O   O62       1.0  0.26222  0.03229  0.55206  1.0000
  O   O63       1.0  0.26216  0.53253  0.05190  1.0000
  O   O64       1.0  0.26224  0.53253  0.55204  1.0000
  O   O65       1.0  0.59550  0.03250  0.05190  1.0000
  O   O66       1.0  0.59553  0.03246  0.55199  1.0000
  O   O67       1.0  0.59546  0.53239  0.05184  1.0000
  O   O68       1.0  0.59553  0.53258  0.55198  1.0000
  O   O69       1.0  0.92887  0.03259  0.05202  1.0000
  O   O70       1.0  0.92886  0.03245  0.55197  1.0000
  O   O71       1.0  0.92876  0.53243  0.05203  1.0000
  O   O72       1.0  0.92889  0.53244  0.55203  1.0000
  O   O73       1.0  0.26221  0.28241  0.44899  1.0000
  O   O74       1.0  0.26225  0.28259  0.94884  1.0000
  O   O75       1.0  0.26220  0.78245  0.44890  1.0000
  O   O76       1.0  0.26216  0.78251  0.94892  1.0000
  O   O77       1.0  0.59550  0.28248  0.44887  1.0000
  O   O78       1.0  0.59556  0.28248  0.94884  1.0000
  O   O79       1.0  0.59546  0.78244  0.44903  1.0000
  O   O80       1.0  0.59554  0.78253  0.94890  1.0000
  O   O81       1.0  0.92878  0.28239  0.44903  1.0000
  O   O82       1.0  0.92901  0.28255  0.94884  1.0000
  O   O83       1.0  0.92900  0.78259  0.44881  1.0000
  O   O84       1.0  0.92883  0.78251  0.94894  1.0000
  O   O85       1.0  0.07178  0.46838  0.44890  1.0000
  O   O86       1.0  0.07169  0.46839  0.94888  1.0000
  O   O87       1.0  0.07180  0.96842  0.44889  1.0000
  O   O88       1.0  0.07174  0.96835  0.94889  1.0000
  O   O89       1.0  0.40504  0.46834  0.44884  1.0000
  O   O90       1.0  0.40512  0.46857  0.94889  1.0000
  O   O91       1.0  0.40508  0.96832  0.44885  1.0000
  O   O92       1.0  0.40500  0.96839  0.94883  1.0000
  O   O93       1.0  0.73837  0.46842  0.44884  1.0000
  O   O94       1.0  0.73840  0.46839  0.94890  1.0000
  O   O95       1.0  0.73834  0.96835  0.44880  1.0000
  O   O96       1.0  0.73845  0.96848  0.94886  1.0000
