data_image0
_chemical_formula_structural       Cs32Zr16O48
_chemical_formula_sum              "Cs32 Zr16 O48"
_cell_length_a       11.9076
_cell_length_b       12.9179
_cell_length_c       13.7402
_cell_angle_alpha    81.8352
_cell_angle_beta     90
_cell_angle_gamma    90

_space_group_name_H-M_alt    "P 1"
_space_group_IT_number       1

loop_
  _space_group_symop_operation_xyz
  'x, y, z'

loop_
  _atom_site_type_symbol
  _atom_site_label
  _atom_site_symmetry_multiplicity
  _atom_site_fract_x
  _atom_site_fract_y
  _atom_site_fract_z
  _atom_site_occupancy
  Cs  Cs1       1.0  0.12547  0.40474  0.03945  1.0000
  Cs  Cs2       1.0  0.12558  0.40484  0.53936  1.0000
  Cs  Cs3       1.0  0.12543  0.90465  0.28935  1.0000
  Cs  Cs4       1.0  0.12563  0.90466  0.78929  1.0000
  Cs  Cs5       1.0  0.62562  0.40481  0.03932  1.0000
  Cs  Cs6       1.0  0.62545  0.40493  0.53929  1.0000
  Cs  Cs7       1.0  0.62532  0.90458  0.28923  1.0000
  Cs  Cs8       1.0  0.62546  0.90465  0.78927  1.0000
  Cs  Cs9       1.0  0.37535  0.09566  0.21138  1.0000
  Cs  Cs10      1.0  0.37538  0.09571  0.71154  1.0000
  Cs  Cs11      1.0  0.37555  0.59582  0.46120  1.0000
  Cs  Cs12      1.0  0.37527  0.59578  0.96125  1.0000
  Cs  Cs13      1.0  0.87542  0.09582  0.21141  1.0000
  Cs  Cs14      1.0  0.87529  0.09592  0.71131  1.0000
  Cs  Cs15      1.0  0.87536  0.59571  0.46142  1.0000
  Cs  Cs16      1.0  0.87555  0.59584  0.96122  1.0000
  Cs  Cs17      1.0  0.37564  0.25899  0.96653  1.0000
  Cs  Cs18      1.0  0.37533  0.25890  0.46675  1.0000
  Cs  Cs19      1.0  0.37519  0.75905  0.21652  1.0000
  Cs  Cs20      1.0  0.37535  0.75899  0.71640  1.0000
  Cs  Cs21      1.0  0.87528  0.25903  0.96678  1.0000
  Cs  Cs22      1.0  0.87561  0.25919  0.46647  1.0000
  Cs  Cs23      1.0  0.87552  0.75918  0.21641  1.0000
  Cs  Cs24      1.0  0.87545  0.75904  0.71659  1.0000
  Cs  Cs25      1.0  0.12567  0.24146  0.28407  1.0000
  Cs  Cs26      1.0  0.12516  0.24144  0.78421  1.0000
  Cs  Cs27      1.0  0.12530  0.74142  0.53426  1.0000
  Cs  Cs28      1.0  0.12548  0.74150  0.03430  1.0000
  Cs  Cs29      1.0  0.62533  0.24161  0.28408  1.0000
  Cs  Cs30      1.0  0.62540  0.24176  0.78406  1.0000
  Cs  Cs31      1.0  0.62528  0.74172  0.53420  1.0000
  Cs  Cs32      1.0  0.62541  0.74160  0.03414  1.0000
  Zr  Zr1       1.0  0.12539  0.04216  0.02113  1.0000
  Zr  Zr2       1.0  0.12553  0.04209  0.52129  1.0000
  Zr  Zr3       1.0  0.12545  0.54211  0.27126  1.0000
  Zr  Zr4       1.0  0.12549  0.54203  0.77135  1.0000
  Zr  Zr5       1.0  0.62557  0.04212  0.02120  1.0000
  Zr  Zr6       1.0  0.62553  0.04212  0.52117  1.0000
  Zr  Zr7       1.0  0.62540  0.54222  0.27118  1.0000
  Zr  Zr8       1.0  0.62547  0.54208  0.77132  1.0000
  Zr  Zr9       1.0  0.37545  0.45846  0.22942  1.0000
  Zr  Zr10      1.0  0.37545  0.45847  0.72951  1.0000
  Zr  Zr11      1.0  0.37551  0.95851  0.47942  1.0000
  Zr  Zr12      1.0  0.37549  0.95854  0.97944  1.0000
  Zr  Zr13      1.0  0.87538  0.45863  0.22936  1.0000
  Zr  Zr14      1.0  0.87549  0.45844  0.72953  1.0000
  Zr  Zr15      1.0  0.87552  0.95844  0.47943  1.0000
  Zr  Zr16      1.0  0.87548  0.95842  0.97941  1.0000
  O   O1        1.0  0.37514  0.33392  0.16740  1.0000
  O   O2        1.0  0.37538  0.33409  0.66729  1.0000
  O   O3        1.0  0.37551  0.83399  0.41735  1.0000
  O   O4        1.0  0.37553  0.83413  0.91718  1.0000
  O   O5        1.0  0.87521  0.33421  0.16712  1.0000
  O   O6        1.0  0.87570  0.33400  0.66730  1.0000
  O   O7        1.0  0.87568  0.83398  0.41724  1.0000
  O   O8        1.0  0.87517  0.83380  0.91741  1.0000
  O   O9        1.0  0.12517  0.16668  0.08324  1.0000
  O   O10       1.0  0.12568  0.16648  0.58361  1.0000
  O   O11       1.0  0.12538  0.66659  0.33342  1.0000
  O   O12       1.0  0.12542  0.66649  0.83358  1.0000
  O   O13       1.0  0.62574  0.16660  0.08332  1.0000
  O   O14       1.0  0.62553  0.16656  0.58339  1.0000
  O   O15       1.0  0.62519  0.66661  0.33348  1.0000
  O   O16       1.0  0.62556  0.66654  0.83354  1.0000
  O   O17       1.0  0.25055  0.05906  0.41222  1.0000
  O   O18       1.0  0.25053  0.05914  0.91219  1.0000
  O   O19       1.0  0.25043  0.55897  0.66228  1.0000
  O   O20       1.0  0.25053  0.55915  0.16229  1.0000
  O   O21       1.0  0.75055  0.05907  0.41217  1.0000
  O   O22       1.0  0.75056  0.05906  0.91224  1.0000
  O   O23       1.0  0.75045  0.55900  0.66232  1.0000
  O   O24       1.0  0.75048  0.55939  0.16222  1.0000
  O   O25       1.0  0.00051  0.05903  0.41228  1.0000
  O   O26       1.0  0.00052  0.05880  0.91204  1.0000
  O   O27       1.0  0.00041  0.55902  0.66234  1.0000
  O   O28       1.0  0.00048  0.55899  0.16221  1.0000
  O   O29       1.0  0.50060  0.05887  0.41211  1.0000
  O   O30       1.0  0.50050  0.05900  0.91222  1.0000
  O   O31       1.0  0.50041  0.55907  0.66237  1.0000
  O   O32       1.0  0.50054  0.55889  0.16206  1.0000
  O   O33       1.0  0.25058  0.44167  0.83863  1.0000
  O   O34       1.0  0.25047  0.44156  0.33845  1.0000
  O   O35       1.0  0.25036  0.94165  0.08844  1.0000
  O   O36       1.0  0.25052  0.94169  0.58853  1.0000
  O   O37       1.0  0.75045  0.44149  0.83856  1.0000
  O   O38       1.0  0.75041  0.44175  0.33844  1.0000
  O   O39       1.0  0.75047  0.94151  0.08843  1.0000
  O   O40       1.0  0.75040  0.94138  0.58836  1.0000
  O   O41       1.0  0.00048  0.44150  0.83848  1.0000
  O   O42       1.0  0.00041  0.44164  0.33841  1.0000
  O   O43       1.0  0.00046  0.94166  0.08844  1.0000
  O   O44       1.0  0.00054  0.94155  0.58847  1.0000
  O   O45       1.0  0.50049  0.44151  0.83855  1.0000
  O   O46       1.0  0.50043  0.44169  0.33846  1.0000
  O   O47       1.0  0.50043  0.94171  0.08846  1.0000
  O   O48       1.0  0.50040  0.94176  0.58849  1.0000
