data_image0
_chemical_formula_structural       Ba27Hf27O81
_chemical_formula_sum              "Ba27 Hf27 O81"
_cell_length_a       12.5079
_cell_length_b       12.5079
_cell_length_c       12.508
_cell_angle_alpha    90.0005
_cell_angle_beta     90
_cell_angle_gamma    90.0001

_space_group_name_H-M_alt    "P 1"
_space_group_IT_number       1

loop_
  _space_group_symop_operation_xyz
  'x, y, z'

loop_
  _atom_site_type_symbol
  _atom_site_label
  _atom_site_symmetry_multiplicity
  _atom_site_fract_x
  _atom_site_fract_y
  _atom_site_fract_z
  _atom_site_occupancy
  Ba  Ba1       1.0  0.33377  0.33767  0.33449  1.0000
  Ba  Ba2       1.0  0.33369  0.33777  0.00118  1.0000
  Ba  Ba3       1.0  0.33374  0.33778  0.66787  1.0000
  Ba  Ba4       1.0  0.00038  0.33773  0.33454  1.0000
  Ba  Ba5       1.0  0.00048  0.33781  0.00116  1.0000
  Ba  Ba6       1.0  0.00044  0.33771  0.66791  1.0000
  Ba  Ba7       1.0  0.66714  0.33773  0.33450  1.0000
  Ba  Ba8       1.0  0.66712  0.33774  0.00121  1.0000
  Ba  Ba9       1.0  0.66702  0.33782  0.66794  1.0000
  Ba  Ba10      1.0  0.33381  0.00437  0.33453  1.0000
  Ba  Ba11      1.0  0.33381  0.00438  0.00127  1.0000
  Ba  Ba12      1.0  0.33369  0.00446  0.66789  1.0000
  Ba  Ba13      1.0  0.00045  0.00438  0.33458  1.0000
  Ba  Ba14      1.0  0.00045  0.00435  0.00115  1.0000
  Ba  Ba15      1.0  0.00040  0.00438  0.66794  1.0000
  Ba  Ba16      1.0  0.66720  0.00441  0.33460  1.0000
  Ba  Ba17      1.0  0.66713  0.00437  0.00122  1.0000
  Ba  Ba18      1.0  0.66700  0.00441  0.66790  1.0000
  Ba  Ba19      1.0  0.33371  0.67100  0.33457  1.0000
  Ba  Ba20      1.0  0.33380  0.67110  0.00126  1.0000
  Ba  Ba21      1.0  0.33375  0.67110  0.66789  1.0000
  Ba  Ba22      1.0  0.00042  0.67109  0.33453  1.0000
  Ba  Ba23      1.0  0.00046  0.67105  0.00124  1.0000
  Ba  Ba24      1.0  0.00045  0.67106  0.66791  1.0000
  Ba  Ba25      1.0  0.66721  0.67106  0.33453  1.0000
  Ba  Ba26      1.0  0.66705  0.67108  0.00120  1.0000
  Ba  Ba27      1.0  0.66705  0.67109  0.66788  1.0000
  Hf  Hf1       1.0  0.50038  0.50442  0.50109  1.0000
  Hf  Hf2       1.0  0.50042  0.50433  0.16780  1.0000
  Hf  Hf3       1.0  0.50036  0.50447  0.83443  1.0000
  Hf  Hf4       1.0  0.16701  0.50440  0.50109  1.0000
  Hf  Hf5       1.0  0.16708  0.50436  0.16777  1.0000
  Hf  Hf6       1.0  0.16704  0.50444  0.83440  1.0000
  Hf  Hf7       1.0  0.83372  0.50437  0.50109  1.0000
  Hf  Hf8       1.0  0.83378  0.50440  0.16773  1.0000
  Hf  Hf9       1.0  0.83372  0.50442  0.83445  1.0000
  Hf  Hf10      1.0  0.50039  0.17107  0.50119  1.0000
  Hf  Hf11      1.0  0.50047  0.17103  0.16782  1.0000
  Hf  Hf12      1.0  0.50038  0.17115  0.83445  1.0000
  Hf  Hf13      1.0  0.16704  0.17107  0.50109  1.0000
  Hf  Hf14      1.0  0.16715  0.17101  0.16776  1.0000
  Hf  Hf15      1.0  0.16708  0.17115  0.83444  1.0000
  Hf  Hf16      1.0  0.83372  0.17110  0.50118  1.0000
  Hf  Hf17      1.0  0.83383  0.17108  0.16777  1.0000
  Hf  Hf18      1.0  0.83370  0.17108  0.83445  1.0000
  Hf  Hf19      1.0  0.50043  0.83774  0.50111  1.0000
  Hf  Hf20      1.0  0.50046  0.83772  0.16785  1.0000
  Hf  Hf21      1.0  0.50038  0.83775  0.83448  1.0000
  Hf  Hf22      1.0  0.16701  0.83774  0.50119  1.0000
  Hf  Hf23      1.0  0.16710  0.83770  0.16780  1.0000
  Hf  Hf24      1.0  0.16707  0.83779  0.83447  1.0000
  Hf  Hf25      1.0  0.83375  0.83772  0.50108  1.0000
  Hf  Hf26      1.0  0.83379  0.83780  0.16773  1.0000
  Hf  Hf27      1.0  0.83369  0.83772  0.83442  1.0000
  O   O1        1.0  0.66712  0.50432  0.50087  1.0000
  O   O2        1.0  0.66714  0.50434  0.16766  1.0000
  O   O3        1.0  0.66704  0.50450  0.83427  1.0000
  O   O4        1.0  0.33371  0.50445  0.50099  1.0000
  O   O5        1.0  0.33377  0.50434  0.16764  1.0000
  O   O6        1.0  0.33366  0.50431  0.83422  1.0000
  O   O7        1.0  0.00040  0.50434  0.50097  1.0000
  O   O8        1.0  0.00044  0.50444  0.16755  1.0000
  O   O9        1.0  0.00036  0.50438  0.83436  1.0000
  O   O10       1.0  0.66711  0.17102  0.50115  1.0000
  O   O11       1.0  0.66717  0.17105  0.16749  1.0000
  O   O12       1.0  0.66706  0.17109  0.83430  1.0000
  O   O13       1.0  0.33373  0.17108  0.50099  1.0000
  O   O14       1.0  0.33377  0.17105  0.16773  1.0000
  O   O15       1.0  0.33375  0.17125  0.83427  1.0000
  O   O16       1.0  0.00041  0.17108  0.50089  1.0000
  O   O17       1.0  0.00049  0.17108  0.16767  1.0000
  O   O18       1.0  0.00037  0.17100  0.83436  1.0000
  O   O19       1.0  0.66708  0.83776  0.50076  1.0000
  O   O20       1.0  0.66717  0.83777  0.16761  1.0000
  O   O21       1.0  0.66708  0.83762  0.83436  1.0000
  O   O22       1.0  0.33370  0.83767  0.50089  1.0000
  O   O23       1.0  0.33382  0.83764  0.16767  1.0000
  O   O24       1.0  0.33369  0.83767  0.83427  1.0000
  O   O25       1.0  0.00040  0.83780  0.50102  1.0000
  O   O26       1.0  0.00045  0.83781  0.16755  1.0000
  O   O27       1.0  0.00039  0.83777  0.83425  1.0000
  O   O28       1.0  0.50033  0.33776  0.50109  1.0000
  O   O29       1.0  0.50048  0.33767  0.16763  1.0000
  O   O30       1.0  0.50047  0.33775  0.83431  1.0000
  O   O31       1.0  0.16709  0.33772  0.50098  1.0000
  O   O32       1.0  0.16716  0.33773  0.16767  1.0000
  O   O33       1.0  0.16695  0.33776  0.83436  1.0000
  O   O34       1.0  0.83366  0.33773  0.50096  1.0000
  O   O35       1.0  0.83390  0.33773  0.16773  1.0000
  O   O36       1.0  0.83372  0.33775  0.83436  1.0000
  O   O37       1.0  0.50033  0.00441  0.50097  1.0000
  O   O38       1.0  0.50047  0.00439  0.16771  1.0000
  O   O39       1.0  0.50032  0.00440  0.83425  1.0000
  O   O40       1.0  0.16714  0.00445  0.50110  1.0000
  O   O41       1.0  0.16723  0.00440  0.16768  1.0000
  O   O42       1.0  0.16713  0.00443  0.83425  1.0000
  O   O43       1.0  0.83371  0.00445  0.50107  1.0000
  O   O44       1.0  0.83380  0.00440  0.16767  1.0000
  O   O45       1.0  0.83370  0.00442  0.83420  1.0000
  O   O46       1.0  0.50048  0.67103  0.50089  1.0000
  O   O47       1.0  0.50052  0.67101  0.16764  1.0000
  O   O48       1.0  0.50030  0.67107  0.83425  1.0000
  O   O49       1.0  0.16692  0.67107  0.50089  1.0000
  O   O50       1.0  0.16711  0.67106  0.16764  1.0000
  O   O51       1.0  0.16703  0.67101  0.83427  1.0000
  O   O52       1.0  0.83372  0.67109  0.50087  1.0000
  O   O53       1.0  0.83383  0.67106  0.16763  1.0000
  O   O54       1.0  0.83380  0.67106  0.83428  1.0000
  O   O55       1.0  0.50045  0.50432  0.33432  1.0000
  O   O56       1.0  0.50032  0.50439  0.00095  1.0000
  O   O57       1.0  0.50041  0.50456  0.66769  1.0000
  O   O58       1.0  0.16703  0.50433  0.33434  1.0000
  O   O59       1.0  0.16713  0.50437  0.00099  1.0000
  O   O60       1.0  0.16697  0.50449  0.66763  1.0000
  O   O61       1.0  0.83380  0.50441  0.33431  1.0000
  O   O62       1.0  0.83364  0.50442  0.00097  1.0000
  O   O63       1.0  0.83375  0.50448  0.66768  1.0000
  O   O64       1.0  0.50058  0.17109  0.33441  1.0000
  O   O65       1.0  0.50030  0.17097  0.00104  1.0000
  O   O66       1.0  0.50043  0.17100  0.66772  1.0000
  O   O67       1.0  0.16714  0.17096  0.33436  1.0000
  O   O68       1.0  0.16723  0.17101  0.00098  1.0000
  O   O69       1.0  0.16707  0.17110  0.66777  1.0000
  O   O70       1.0  0.83365  0.17111  0.33434  1.0000
  O   O71       1.0  0.83380  0.17106  0.00101  1.0000
  O   O72       1.0  0.83388  0.17113  0.66773  1.0000
  O   O73       1.0  0.50050  0.83770  0.33435  1.0000
  O   O74       1.0  0.50044  0.83775  0.00099  1.0000
  O   O75       1.0  0.50050  0.83770  0.66770  1.0000
  O   O76       1.0  0.16701  0.83781  0.33437  1.0000
  O   O77       1.0  0.16717  0.83767  0.00101  1.0000
  O   O78       1.0  0.16713  0.83775  0.66774  1.0000
  O   O79       1.0  0.83391  0.83775  0.33435  1.0000
  O   O80       1.0  0.83378  0.83783  0.00098  1.0000
  O   O81       1.0  0.83362  0.83771  0.66768  1.0000
