data_image0
_chemical_formula_structural       Nb24In24O96
_chemical_formula_sum              "Nb24 In24 O96"
_cell_length_a       14.6336
_cell_length_b       10.3694
_cell_length_c       11.6434
_cell_angle_alpha    89.9952
_cell_angle_beta     89.9932
_cell_angle_gamma    90.8716

_space_group_name_H-M_alt    "P 1"
_space_group_IT_number       1

loop_
  _space_group_symop_operation_xyz
  'x, y, z'

loop_
  _atom_site_type_symbol
  _atom_site_label
  _atom_site_symmetry_multiplicity
  _atom_site_fract_x
  _atom_site_fract_y
  _atom_site_fract_z
  _atom_site_occupancy
  Nb  Nb1       1.0  0.00031  0.37558  0.09022  1.0000
  Nb  Nb2       1.0  0.00032  0.37555  0.59025  1.0000
  Nb  Nb3       1.0  0.00035  0.87550  0.09028  1.0000
  Nb  Nb4       1.0  0.00039  0.87553  0.59011  1.0000
  Nb  Nb5       1.0  0.33367  0.37555  0.09013  1.0000
  Nb  Nb6       1.0  0.33364  0.37550  0.59019  1.0000
  Nb  Nb7       1.0  0.33368  0.87545  0.09024  1.0000
  Nb  Nb8       1.0  0.33374  0.87546  0.59028  1.0000
  Nb  Nb9       1.0  0.66699  0.37546  0.09022  1.0000
  Nb  Nb10      1.0  0.66711  0.37543  0.59021  1.0000
  Nb  Nb11      1.0  0.66703  0.87553  0.09016  1.0000
  Nb  Nb12      1.0  0.66706  0.87537  0.59021  1.0000
  Nb  Nb13      1.0  0.00033  0.12557  0.41062  1.0000
  Nb  Nb14      1.0  0.00031  0.12557  0.91066  1.0000
  Nb  Nb15      1.0  0.00025  0.62545  0.41056  1.0000
  Nb  Nb16      1.0  0.00038  0.62559  0.91067  1.0000
  Nb  Nb17      1.0  0.33361  0.12543  0.41064  1.0000
  Nb  Nb18      1.0  0.33370  0.12547  0.91057  1.0000
  Nb  Nb19      1.0  0.33368  0.62551  0.41055  1.0000
  Nb  Nb20      1.0  0.33361  0.62557  0.91050  1.0000
  Nb  Nb21      1.0  0.66694  0.12541  0.41072  1.0000
  Nb  Nb22      1.0  0.66706  0.12550  0.91057  1.0000
  Nb  Nb23      1.0  0.66691  0.62539  0.41056  1.0000
  Nb  Nb24      1.0  0.66702  0.62548  0.91063  1.0000
  In  In1       1.0  0.16698  0.37543  0.34073  1.0000
  In  In2       1.0  0.16700  0.37553  0.84083  1.0000
  In  In3       1.0  0.16704  0.87546  0.34074  1.0000
  In  In4       1.0  0.16696  0.87559  0.84070  1.0000
  In  In5       1.0  0.50030  0.37536  0.34071  1.0000
  In  In6       1.0  0.50034  0.37556  0.84078  1.0000
  In  In7       1.0  0.50036  0.87547  0.34074  1.0000
  In  In8       1.0  0.50032  0.87542  0.84067  1.0000
  In  In9       1.0  0.83360  0.37538  0.34074  1.0000
  In  In10      1.0  0.83366  0.37558  0.84080  1.0000
  In  In11      1.0  0.83365  0.87545  0.34070  1.0000
  In  In12      1.0  0.83377  0.87548  0.84068  1.0000
  In  In13      1.0  0.16701  0.12551  0.15999  1.0000
  In  In14      1.0  0.16703  0.12562  0.66007  1.0000
  In  In15      1.0  0.16695  0.62544  0.16012  1.0000
  In  In16      1.0  0.16697  0.62557  0.66000  1.0000
  In  In17      1.0  0.50026  0.12548  0.16003  1.0000
  In  In18      1.0  0.50040  0.12562  0.66008  1.0000
  In  In19      1.0  0.50032  0.62554  0.15997  1.0000
  In  In20      1.0  0.50036  0.62539  0.66003  1.0000
  In  In21      1.0  0.83364  0.12553  0.16010  1.0000
  In  In22      1.0  0.83372  0.12548  0.66013  1.0000
  In  In23      1.0  0.83356  0.62545  0.16012  1.0000
  In  In24      1.0  0.83372  0.62553  0.66010  1.0000
  O   O1        1.0  0.08740  0.20196  0.30873  1.0000
  O   O2        1.0  0.08739  0.20208  0.80889  1.0000
  O   O3        1.0  0.08731  0.70214  0.30881  1.0000
  O   O4        1.0  0.08740  0.70210  0.80881  1.0000
  O   O5        1.0  0.42058  0.20206  0.30875  1.0000
  O   O6        1.0  0.42081  0.20206  0.80884  1.0000
  O   O7        1.0  0.42079  0.70199  0.30875  1.0000
  O   O8        1.0  0.42072  0.70204  0.80866  1.0000
  O   O9        1.0  0.75403  0.20186  0.30890  1.0000
  O   O10       1.0  0.75412  0.20200  0.80876  1.0000
  O   O11       1.0  0.75406  0.70198  0.30887  1.0000
  O   O12       1.0  0.75416  0.70197  0.80890  1.0000
  O   O13       1.0  0.24659  0.04898  0.30879  1.0000
  O   O14       1.0  0.24660  0.04902  0.80881  1.0000
  O   O15       1.0  0.24651  0.54900  0.30887  1.0000
  O   O16       1.0  0.24652  0.54909  0.80881  1.0000
  O   O17       1.0  0.57978  0.04919  0.30889  1.0000
  O   O18       1.0  0.58000  0.04899  0.80881  1.0000
  O   O19       1.0  0.57984  0.54889  0.30881  1.0000
  O   O20       1.0  0.57993  0.54903  0.80879  1.0000
  O   O21       1.0  0.91318  0.04908  0.30897  1.0000
  O   O22       1.0  0.91333  0.04899  0.80878  1.0000
  O   O23       1.0  0.91323  0.54890  0.30876  1.0000
  O   O24       1.0  0.91340  0.54898  0.80886  1.0000
  O   O25       1.0  0.24660  0.29904  0.19195  1.0000
  O   O26       1.0  0.24662  0.29898  0.69208  1.0000
  O   O27       1.0  0.24667  0.79888  0.19206  1.0000
  O   O28       1.0  0.24663  0.79890  0.69202  1.0000
  O   O29       1.0  0.57987  0.29893  0.19193  1.0000
  O   O30       1.0  0.58001  0.29897  0.69199  1.0000
  O   O31       1.0  0.57997  0.79906  0.19201  1.0000
  O   O32       1.0  0.57991  0.79891  0.69192  1.0000
  O   O33       1.0  0.91321  0.29905  0.19199  1.0000
  O   O34       1.0  0.91326  0.29907  0.69206  1.0000
  O   O35       1.0  0.91327  0.79893  0.19203  1.0000
  O   O36       1.0  0.91324  0.79910  0.69193  1.0000
  O   O37       1.0  0.08730  0.45202  0.19212  1.0000
  O   O38       1.0  0.08744  0.45199  0.69199  1.0000
  O   O39       1.0  0.08746  0.95202  0.19201  1.0000
  O   O40       1.0  0.08746  0.95203  0.69188  1.0000
  O   O41       1.0  0.42071  0.45205  0.19193  1.0000
  O   O42       1.0  0.42068  0.45198  0.69202  1.0000
  O   O43       1.0  0.42074  0.95199  0.19202  1.0000
  O   O44       1.0  0.42075  0.95207  0.69205  1.0000
  O   O45       1.0  0.75399  0.45192  0.19209  1.0000
  O   O46       1.0  0.75415  0.45198  0.69199  1.0000
  O   O47       1.0  0.75423  0.95186  0.19185  1.0000
  O   O48       1.0  0.75406  0.95199  0.69199  1.0000
  O   O49       1.0  0.07239  0.21902  0.05174  1.0000
  O   O50       1.0  0.07225  0.21884  0.55188  1.0000
  O   O51       1.0  0.07237  0.71891  0.05192  1.0000
  O   O52       1.0  0.07231  0.71885  0.55180  1.0000
  O   O53       1.0  0.40572  0.21896  0.05170  1.0000
  O   O54       1.0  0.40572  0.21896  0.55179  1.0000
  O   O55       1.0  0.40575  0.71895  0.05168  1.0000
  O   O56       1.0  0.40572  0.71884  0.55176  1.0000
  O   O57       1.0  0.73909  0.21898  0.05174  1.0000
  O   O58       1.0  0.73909  0.21881  0.55183  1.0000
  O   O59       1.0  0.73895  0.71883  0.05181  1.0000
  O   O60       1.0  0.73890  0.71864  0.55193  1.0000
  O   O61       1.0  0.26176  0.03222  0.05185  1.0000
  O   O62       1.0  0.26173  0.03213  0.55194  1.0000
  O   O63       1.0  0.26167  0.53218  0.05178  1.0000
  O   O64       1.0  0.26168  0.53216  0.55187  1.0000
  O   O65       1.0  0.59515  0.03225  0.05189  1.0000
  O   O66       1.0  0.59503  0.03209  0.55189  1.0000
  O   O67       1.0  0.59504  0.53214  0.05186  1.0000
  O   O68       1.0  0.59500  0.53203  0.55180  1.0000
  O   O69       1.0  0.92845  0.03225  0.05194  1.0000
  O   O70       1.0  0.92830  0.03210  0.55175  1.0000
  O   O71       1.0  0.92831  0.53221  0.05188  1.0000
  O   O72       1.0  0.92827  0.53207  0.55176  1.0000
  O   O73       1.0  0.26152  0.28196  0.44913  1.0000
  O   O74       1.0  0.26171  0.28210  0.94899  1.0000
  O   O75       1.0  0.26175  0.78216  0.44902  1.0000
  O   O76       1.0  0.26166  0.78224  0.94903  1.0000
  O   O77       1.0  0.59505  0.28211  0.44900  1.0000
  O   O78       1.0  0.59507  0.28218  0.94898  1.0000
  O   O79       1.0  0.59499  0.78199  0.44898  1.0000
  O   O80       1.0  0.59504  0.78222  0.94893  1.0000
  O   O81       1.0  0.92840  0.28224  0.44897  1.0000
  O   O82       1.0  0.92831  0.28218  0.94903  1.0000
  O   O83       1.0  0.92828  0.78204  0.44905  1.0000
  O   O84       1.0  0.92838  0.78220  0.94911  1.0000
  O   O85       1.0  0.07234  0.46897  0.44904  1.0000
  O   O86       1.0  0.07242  0.46905  0.94915  1.0000
  O   O87       1.0  0.07231  0.96882  0.44892  1.0000
  O   O88       1.0  0.07228  0.96893  0.94896  1.0000
  O   O89       1.0  0.40559  0.46876  0.44888  1.0000
  O   O90       1.0  0.40568  0.46902  0.94900  1.0000
  O   O91       1.0  0.40566  0.96883  0.44899  1.0000
  O   O92       1.0  0.40569  0.96884  0.94896  1.0000
  O   O93       1.0  0.73896  0.46874  0.44894  1.0000
  O   O94       1.0  0.73898  0.46888  0.94898  1.0000
  O   O95       1.0  0.73885  0.96861  0.44893  1.0000
  O   O96       1.0  0.73904  0.96885  0.94893  1.0000
