data_image0
_chemical_formula_structural       Sr27Al27O81
_chemical_formula_sum              "Sr27 Al27 O81"
_cell_length_a       11.3868
_cell_length_b       11.3868
_cell_length_c       11.3868
_cell_angle_alpha    89.9999
_cell_angle_beta     90.0001
_cell_angle_gamma    89.9999

_space_group_name_H-M_alt    "P 1"
_space_group_IT_number       1

loop_
  _space_group_symop_operation_xyz
  'x, y, z'

loop_
  _atom_site_type_symbol
  _atom_site_label
  _atom_site_symmetry_multiplicity
  _atom_site_fract_x
  _atom_site_fract_y
  _atom_site_fract_z
  _atom_site_occupancy
  Sr  Sr1       1.0  0.00034  0.00048  0.00047  1.0000
  Sr  Sr2       1.0  0.00048  0.00036  0.33381  1.0000
  Sr  Sr3       1.0  0.00036  0.00039  0.66701  1.0000
  Sr  Sr4       1.0  0.00046  0.33388  0.00041  1.0000
  Sr  Sr5       1.0  0.00039  0.33374  0.33382  1.0000
  Sr  Sr6       1.0  0.00042  0.33380  0.66705  1.0000
  Sr  Sr7       1.0  0.00053  0.66708  0.00053  1.0000
  Sr  Sr8       1.0  0.00050  0.66713  0.33387  1.0000
  Sr  Sr9       1.0  0.00043  0.66708  0.66715  1.0000
  Sr  Sr10      1.0  0.33373  0.00051  0.00040  1.0000
  Sr  Sr11      1.0  0.33374  0.00050  0.33375  1.0000
  Sr  Sr12      1.0  0.33377  0.00045  0.66713  1.0000
  Sr  Sr13      1.0  0.33374  0.33374  0.00049  1.0000
  Sr  Sr14      1.0  0.33371  0.33374  0.33377  1.0000
  Sr  Sr15      1.0  0.33375  0.33375  0.66715  1.0000
  Sr  Sr16      1.0  0.33382  0.66710  0.00047  1.0000
  Sr  Sr17      1.0  0.33380  0.66716  0.33378  1.0000
  Sr  Sr18      1.0  0.33386  0.66709  0.66716  1.0000
  Sr  Sr19      1.0  0.66703  0.00033  0.00039  1.0000
  Sr  Sr20      1.0  0.66716  0.00027  0.33372  1.0000
  Sr  Sr21      1.0  0.66699  0.00048  0.66709  1.0000
  Sr  Sr22      1.0  0.66716  0.33371  0.00052  1.0000
  Sr  Sr23      1.0  0.66709  0.33365  0.33380  1.0000
  Sr  Sr24      1.0  0.66702  0.33380  0.66714  1.0000
  Sr  Sr25      1.0  0.66711  0.66697  0.00046  1.0000
  Sr  Sr26      1.0  0.66710  0.66698  0.33378  1.0000
  Sr  Sr27      1.0  0.66708  0.66703  0.66700  1.0000
  Al  Al1       1.0  0.16710  0.16727  0.16719  1.0000
  Al  Al2       1.0  0.16713  0.16710  0.50042  1.0000
  Al  Al3       1.0  0.16706  0.16719  0.83375  1.0000
  Al  Al4       1.0  0.16725  0.50045  0.16726  1.0000
  Al  Al5       1.0  0.16718  0.50038  0.50041  1.0000
  Al  Al6       1.0  0.16715  0.50045  0.83376  1.0000
  Al  Al7       1.0  0.16724  0.83381  0.16716  1.0000
  Al  Al8       1.0  0.16724  0.83368  0.50049  1.0000
  Al  Al9       1.0  0.16710  0.83380  0.83380  1.0000
  Al  Al10      1.0  0.50042  0.16707  0.16723  1.0000
  Al  Al11      1.0  0.50036  0.16710  0.50036  1.0000
  Al  Al12      1.0  0.50032  0.16719  0.83376  1.0000
  Al  Al13      1.0  0.50039  0.50030  0.16721  1.0000
  Al  Al14      1.0  0.50035  0.50038  0.50033  1.0000
  Al  Al15      1.0  0.50040  0.50043  0.83378  1.0000
  Al  Al16      1.0  0.50045  0.83367  0.16711  1.0000
  Al  Al17      1.0  0.50047  0.83370  0.50036  1.0000
  Al  Al18      1.0  0.50042  0.83373  0.83369  1.0000
  Al  Al19      1.0  0.83370  0.16709  0.16724  1.0000
  Al  Al20      1.0  0.83365  0.16713  0.50044  1.0000
  Al  Al21      1.0  0.83369  0.16717  0.83373  1.0000
  Al  Al22      1.0  0.83378  0.50037  0.16728  1.0000
  Al  Al23      1.0  0.83367  0.50037  0.50041  1.0000
  Al  Al24      1.0  0.83371  0.50035  0.83371  1.0000
  Al  Al25      1.0  0.83376  0.83363  0.16717  1.0000
  Al  Al26      1.0  0.83371  0.83371  0.50047  1.0000
  Al  Al27      1.0  0.83369  0.83370  0.83375  1.0000
  O   O1        1.0  0.16706  0.16719  0.00053  1.0000
  O   O2        1.0  0.16714  0.16720  0.33381  1.0000
  O   O3        1.0  0.16698  0.16714  0.66704  1.0000
  O   O4        1.0  0.16723  0.50037  0.00054  1.0000
  O   O5        1.0  0.16723  0.50047  0.33387  1.0000
  O   O6        1.0  0.16715  0.50050  0.66706  1.0000
  O   O7        1.0  0.16713  0.83395  0.00049  1.0000
  O   O8        1.0  0.16716  0.83373  0.33381  1.0000
  O   O9        1.0  0.16714  0.83375  0.66709  1.0000
  O   O10       1.0  0.50058  0.16704  0.00051  1.0000
  O   O11       1.0  0.50048  0.16701  0.33375  1.0000
  O   O12       1.0  0.50028  0.16733  0.66704  1.0000
  O   O13       1.0  0.50043  0.50043  0.00055  1.0000
  O   O14       1.0  0.50039  0.50030  0.33380  1.0000
  O   O15       1.0  0.50034  0.50034  0.66695  1.0000
  O   O16       1.0  0.50040  0.83364  0.00042  1.0000
  O   O17       1.0  0.50047  0.83376  0.33373  1.0000
  O   O18       1.0  0.50038  0.83363  0.66702  1.0000
  O   O19       1.0  0.83364  0.16707  0.00049  1.0000
  O   O20       1.0  0.83370  0.16702  0.33381  1.0000
  O   O21       1.0  0.83386  0.16718  0.66699  1.0000
  O   O22       1.0  0.83385  0.50042  0.00051  1.0000
  O   O23       1.0  0.83381  0.50044  0.33387  1.0000
  O   O24       1.0  0.83375  0.50031  0.66698  1.0000
  O   O25       1.0  0.83378  0.83362  0.00046  1.0000
  O   O26       1.0  0.83380  0.83371  0.33380  1.0000
  O   O27       1.0  0.83378  0.83377  0.66705  1.0000
  O   O28       1.0  0.16701  0.00058  0.16718  1.0000
  O   O29       1.0  0.16717  0.00039  0.50046  1.0000
  O   O30       1.0  0.16698  0.00054  0.83372  1.0000
  O   O31       1.0  0.16708  0.33388  0.16719  1.0000
  O   O32       1.0  0.16717  0.33378  0.50058  1.0000
  O   O33       1.0  0.16704  0.33382  0.83369  1.0000
  O   O34       1.0  0.16731  0.66703  0.16706  1.0000
  O   O35       1.0  0.16720  0.66708  0.50052  1.0000
  O   O36       1.0  0.16717  0.66712  0.83388  1.0000
  O   O37       1.0  0.50047  0.00037  0.16706  1.0000
  O   O38       1.0  0.50036  0.00043  0.50046  1.0000
  O   O39       1.0  0.50041  0.00048  0.83366  1.0000
  O   O40       1.0  0.50046  0.33371  0.16715  1.0000
  O   O41       1.0  0.50041  0.33370  0.50031  1.0000
  O   O42       1.0  0.50036  0.33386  0.83394  1.0000
  O   O43       1.0  0.50046  0.66696  0.16724  1.0000
  O   O44       1.0  0.50041  0.66697  0.50026  1.0000
  O   O45       1.0  0.50052  0.66700  0.83374  1.0000
  O   O46       1.0  0.83387  0.00039  0.16713  1.0000
  O   O47       1.0  0.83367  0.00044  0.50051  1.0000
  O   O48       1.0  0.83372  0.00046  0.83377  1.0000
  O   O49       1.0  0.83384  0.33380  0.16722  1.0000
  O   O50       1.0  0.83361  0.33376  0.50040  1.0000
  O   O51       1.0  0.83381  0.33381  0.83385  1.0000
  O   O52       1.0  0.83374  0.66694  0.16714  1.0000
  O   O53       1.0  0.83372  0.66698  0.50054  1.0000
  O   O54       1.0  0.83360  0.66695  0.83368  1.0000
  O   O55       1.0  0.00040  0.16720  0.16719  1.0000
  O   O56       1.0  0.00039  0.16707  0.50031  1.0000
  O   O57       1.0  0.00041  0.16706  0.83388  1.0000
  O   O58       1.0  0.00059  0.50054  0.16723  1.0000
  O   O59       1.0  0.00048  0.50035  0.50035  1.0000
  O   O60       1.0  0.00049  0.50064  0.83373  1.0000
  O   O61       1.0  0.00050  0.83360  0.16715  1.0000
  O   O62       1.0  0.00050  0.83371  0.50049  1.0000
  O   O63       1.0  0.00041  0.83372  0.83382  1.0000
  O   O64       1.0  0.33378  0.16710  0.16712  1.0000
  O   O65       1.0  0.33378  0.16710  0.50045  1.0000
  O   O66       1.0  0.33372  0.16714  0.83386  1.0000
  O   O67       1.0  0.33383  0.50036  0.16719  1.0000
  O   O68       1.0  0.33380  0.50035  0.50046  1.0000
  O   O69       1.0  0.33378  0.50053  0.83375  1.0000
  O   O70       1.0  0.33384  0.83388  0.16704  1.0000
  O   O71       1.0  0.33387  0.83369  0.50045  1.0000
  O   O72       1.0  0.33385  0.83377  0.83377  1.0000
  O   O73       1.0  0.66706  0.16703  0.16716  1.0000
  O   O74       1.0  0.66699  0.16707  0.50051  1.0000
  O   O75       1.0  0.66699  0.16717  0.83358  1.0000
  O   O76       1.0  0.66703  0.50029  0.16720  1.0000
  O   O77       1.0  0.66697  0.50041  0.50037  1.0000
  O   O78       1.0  0.66702  0.50029  0.83375  1.0000
  O   O79       1.0  0.66711  0.83365  0.16700  1.0000
  O   O80       1.0  0.66702  0.83370  0.50043  1.0000
  O   O81       1.0  0.66707  0.83379  0.83373  1.0000
