data_image0
_chemical_formula_structural       K27Hf27O81
_chemical_formula_sum              "K27 Hf27 O81"
_cell_length_a       12.4009
_cell_length_b       12.4009
_cell_length_c       12.4011
_cell_angle_alpha    90
_cell_angle_beta     89.9999
_cell_angle_gamma    90.0001

_space_group_name_H-M_alt    "P 1"
_space_group_IT_number       1

loop_
  _space_group_symop_operation_xyz
  'x, y, z'

loop_
  _atom_site_type_symbol
  _atom_site_label
  _atom_site_symmetry_multiplicity
  _atom_site_fract_x
  _atom_site_fract_y
  _atom_site_fract_z
  _atom_site_occupancy
  K   K1        1.0  0.16692  0.16724  0.16703  1.0000
  K   K2        1.0  0.16685  0.16697  0.50050  1.0000
  K   K3        1.0  0.16684  0.16684  0.83350  1.0000
  K   K4        1.0  0.16708  0.50045  0.16698  1.0000
  K   K5        1.0  0.16707  0.50055  0.50022  1.0000
  K   K6        1.0  0.16680  0.50038  0.83379  1.0000
  K   K7        1.0  0.16729  0.83369  0.16728  1.0000
  K   K8        1.0  0.16727  0.83350  0.50036  1.0000
  K   K9        1.0  0.16687  0.83374  0.83378  1.0000
  K   K10       1.0  0.50064  0.16725  0.16701  1.0000
  K   K11       1.0  0.50043  0.16700  0.50039  1.0000
  K   K12       1.0  0.50058  0.16685  0.83355  1.0000
  K   K13       1.0  0.50065  0.50066  0.16704  1.0000
  K   K14       1.0  0.50046  0.50039  0.50045  1.0000
  K   K15       1.0  0.50061  0.50049  0.83366  1.0000
  K   K16       1.0  0.50040  0.83370  0.16680  1.0000
  K   K17       1.0  0.50018  0.83366  0.50031  1.0000
  K   K18       1.0  0.50022  0.83387  0.83346  1.0000
  K   K19       1.0  0.83361  0.16694  0.16714  1.0000
  K   K20       1.0  0.83383  0.16718  0.50056  1.0000
  K   K21       1.0  0.83361  0.16712  0.83374  1.0000
  K   K22       1.0  0.83348  0.50020  0.16688  1.0000
  K   K23       1.0  0.83385  0.50037  0.50052  1.0000
  K   K24       1.0  0.83394  0.50047  0.83375  1.0000
  K   K25       1.0  0.83381  0.83373  0.16684  1.0000
  K   K26       1.0  0.83365  0.83399  0.50010  1.0000
  K   K27       1.0  0.83363  0.83346  0.83351  1.0000
  Hf  Hf1       1.0  0.00037  0.00031  0.00027  1.0000
  Hf  Hf2       1.0  0.00045  0.00042  0.33366  1.0000
  Hf  Hf3       1.0  0.00041  0.00034  0.66697  1.0000
  Hf  Hf4       1.0  0.00038  0.33364  0.00045  1.0000
  Hf  Hf5       1.0  0.00029  0.33377  0.33375  1.0000
  Hf  Hf6       1.0  0.00041  0.33370  0.66704  1.0000
  Hf  Hf7       1.0  0.00045  0.66698  0.00039  1.0000
  Hf  Hf8       1.0  0.00043  0.66708  0.33366  1.0000
  Hf  Hf9       1.0  0.00029  0.66702  0.66704  1.0000
  Hf  Hf10      1.0  0.33373  0.00029  0.00049  1.0000
  Hf  Hf11      1.0  0.33382  0.00039  0.33380  1.0000
  Hf  Hf12      1.0  0.33375  0.00034  0.66712  1.0000
  Hf  Hf13      1.0  0.33375  0.33364  0.00037  1.0000
  Hf  Hf14      1.0  0.33368  0.33373  0.33367  1.0000
  Hf  Hf15      1.0  0.33378  0.33368  0.66706  1.0000
  Hf  Hf16      1.0  0.33377  0.66694  0.00044  1.0000
  Hf  Hf17      1.0  0.33377  0.66705  0.33376  1.0000
  Hf  Hf18      1.0  0.33364  0.66695  0.66714  1.0000
  Hf  Hf19      1.0  0.66711  0.00045  0.00036  1.0000
  Hf  Hf20      1.0  0.66706  0.00039  0.33369  1.0000
  Hf  Hf21      1.0  0.66712  0.00038  0.66702  1.0000
  Hf  Hf22      1.0  0.66712  0.33369  0.00028  1.0000
  Hf  Hf23      1.0  0.66702  0.33372  0.33377  1.0000
  Hf  Hf24      1.0  0.66710  0.33382  0.66701  1.0000
  Hf  Hf25      1.0  0.66709  0.66712  0.00024  1.0000
  Hf  Hf26      1.0  0.66709  0.66701  0.33359  1.0000
  Hf  Hf27      1.0  0.66694  0.66711  0.66695  1.0000
  O   O1        1.0  0.16712  0.00037  0.00043  1.0000
  O   O2        1.0  0.16714  0.00064  0.33372  1.0000
  O   O3        1.0  0.16710  0.00038  0.66718  1.0000
  O   O4        1.0  0.16705  0.33380  0.00044  1.0000
  O   O5        1.0  0.16707  0.33388  0.33379  1.0000
  O   O6        1.0  0.16708  0.33398  0.66699  1.0000
  O   O7        1.0  0.16711  0.66692  0.00019  1.0000
  O   O8        1.0  0.16714  0.66718  0.33390  1.0000
  O   O9        1.0  0.16695  0.66710  0.66705  1.0000
  O   O10       1.0  0.50044  0.00052  0.00061  1.0000
  O   O11       1.0  0.50040  0.00031  0.33363  1.0000
  O   O12       1.0  0.50038  0.00051  0.66708  1.0000
  O   O13       1.0  0.50042  0.33357  0.00013  1.0000
  O   O14       1.0  0.50035  0.33400  0.33400  1.0000
  O   O15       1.0  0.50045  0.33349  0.66690  1.0000
  O   O16       1.0  0.50041  0.66686  0.00047  1.0000
  O   O17       1.0  0.50040  0.66701  0.33363  1.0000
  O   O18       1.0  0.50028  0.66729  0.66723  1.0000
  O   O19       1.0  0.83379  0.00060  0.00027  1.0000
  O   O20       1.0  0.83374  0.00060  0.33395  1.0000
  O   O21       1.0  0.83378  0.00017  0.66723  1.0000
  O   O22       1.0  0.83378  0.33351  0.00059  1.0000
  O   O23       1.0  0.83359  0.33390  0.33346  1.0000
  O   O24       1.0  0.83375  0.33352  0.66731  1.0000
  O   O25       1.0  0.83375  0.66707  0.00061  1.0000
  O   O26       1.0  0.83372  0.66722  0.33357  1.0000
  O   O27       1.0  0.83365  0.66687  0.66725  1.0000
  O   O28       1.0  0.00041  0.16704  0.00037  1.0000
  O   O29       1.0  0.00027  0.16718  0.33378  1.0000
  O   O30       1.0  0.00046  0.16706  0.66700  1.0000
  O   O31       1.0  0.00029  0.50033  0.00032  1.0000
  O   O32       1.0  0.00046  0.50048  0.33352  1.0000
  O   O33       1.0  0.00019  0.50035  0.66679  1.0000
  O   O34       1.0  0.00018  0.83363  0.00034  1.0000
  O   O35       1.0  0.00061  0.83376  0.33379  1.0000
  O   O36       1.0  0.00054  0.83370  0.66683  1.0000
  O   O37       1.0  0.33363  0.16702  0.00060  1.0000
  O   O38       1.0  0.33368  0.16706  0.33379  1.0000
  O   O39       1.0  0.33374  0.16701  0.66702  1.0000
  O   O40       1.0  0.33349  0.50030  0.00060  1.0000
  O   O41       1.0  0.33383  0.50041  0.33347  1.0000
  O   O42       1.0  0.33390  0.50030  0.66720  1.0000
  O   O43       1.0  0.33357  0.83358  0.00048  1.0000
  O   O44       1.0  0.33350  0.83371  0.33394  1.0000
  O   O45       1.0  0.33386  0.83369  0.66701  1.0000
  O   O46       1.0  0.66706  0.16707  0.00050  1.0000
  O   O47       1.0  0.66683  0.16713  0.33386  1.0000
  O   O48       1.0  0.66723  0.16708  0.66715  1.0000
  O   O49       1.0  0.66704  0.50034  0.00012  1.0000
  O   O50       1.0  0.66682  0.50036  0.33381  1.0000
  O   O51       1.0  0.66725  0.50042  0.66696  1.0000
  O   O52       1.0  0.66719  0.83374  0.00010  1.0000
  O   O53       1.0  0.66729  0.83370  0.33362  1.0000
  O   O54       1.0  0.66707  0.83373  0.66729  1.0000
  O   O55       1.0  0.00036  0.00051  0.16698  1.0000
  O   O56       1.0  0.00043  0.00054  0.50031  1.0000
  O   O57       1.0  0.00061  0.00036  0.83362  1.0000
  O   O58       1.0  0.00031  0.33381  0.16710  1.0000
  O   O59       1.0  0.00018  0.33398  0.50036  1.0000
  O   O60       1.0  0.00025  0.33393  0.83372  1.0000
  O   O61       1.0  0.00053  0.66716  0.16708  1.0000
  O   O62       1.0  0.00018  0.66716  0.50037  1.0000
  O   O63       1.0  0.00061  0.66712  0.83370  1.0000
  O   O64       1.0  0.33395  0.00011  0.16713  1.0000
  O   O65       1.0  0.33383  0.00042  0.50042  1.0000
  O   O66       1.0  0.33383  0.00044  0.83379  1.0000
  O   O67       1.0  0.33390  0.33348  0.16706  1.0000
  O   O68       1.0  0.33379  0.33368  0.50039  1.0000
  O   O69       1.0  0.33396  0.33389  0.83369  1.0000
  O   O70       1.0  0.33378  0.66714  0.16709  1.0000
  O   O71       1.0  0.33362  0.66683  0.50050  1.0000
  O   O72       1.0  0.33364  0.66723  0.83375  1.0000
  O   O73       1.0  0.66726  0.00039  0.16707  1.0000
  O   O74       1.0  0.66690  0.00033  0.50034  1.0000
  O   O75       1.0  0.66706  0.00036  0.83367  1.0000
  O   O76       1.0  0.66698  0.33359  0.16704  1.0000
  O   O77       1.0  0.66734  0.33365  0.50035  1.0000
  O   O78       1.0  0.66735  0.33366  0.83364  1.0000
  O   O79       1.0  0.66685  0.66702  0.16694  1.0000
  O   O80       1.0  0.66705  0.66721  0.50030  1.0000
  O   O81       1.0  0.66717  0.66687  0.83363  1.0000
